# File generated by Flopy version 3.4.3 on 12/16/2023 at 01:59:35.
BEGIN options
  BUDGET  FILEOUT  /Users/Theo/GRWMODELS/python/Pennink-Model/cases/Fremont/SIM/FremontGwf.cbc
  HEAD  FILEOUT  /Users/Theo/GRWMODELS/python/Pennink-Model/cases/Fremont/SIM/FremontGwf.hds
END options

BEGIN period  1
  SAVE  HEAD  ALL
  SAVE  BUDGET  ALL
END period  1

