# File generated by Flopy version 3.4.3 on 12/16/2023 at 01:59:35.
BEGIN options
  SAVE_FLOWS
END options

BEGIN packages
  DIS6  /Users/Theo/GRWMODELS/python/Pennink-Model/cases/Fremont/GWF/FremontGwf.dis  dis
  CHD6  /Users/Theo/GRWMODELS/python/Pennink-Model/cases/Fremont/GWF/FremontGwf.chd  chd_0
  IC6  /Users/Theo/GRWMODELS/python/Pennink-Model/cases/Fremont/GWF/FremontGwf.ic  ic
  NPF6  /Users/Theo/GRWMODELS/python/Pennink-Model/cases/Fremont/GWF/FremontGwf.npf  npf
  OC6  /Users/Theo/GRWMODELS/python/Pennink-Model/cases/Fremont/GWF/FremontGwf.oc  oc
END packages

