# File generated by Flopy version 3.4.3 on 12/16/2023 at 01:59:35.
BEGIN options
  LENGTH_UNITS  meters
END options

BEGIN dimensions
  NLAY  4
  NROW  1
  NCOL  43
END dimensions

BEGIN griddata
  delr
    INTERNAL  FACTOR  1.0
        10.00000000       1.88502227       2.24035317       2.66266473       3.16458297       3.76111391       4.47009226       5.31271460       6.31417314       7.50440884       8.91900662      10.60025924      12.59843172      14.97326416      17.79575780      21.15029779      25.13717603      29.87558970      35.50720491      42.20039212      50.15526004      59.60963827      70.84618786      84.20085208     100.07290025      94.04265552      24.89420933     141.35672880     168.00278704     199.67168662     237.31024430     282.04375394     335.20962980     398.39739167     473.49618741     562.75127342     668.83114195     794.90730199     944.74909902    1122.83640855    1334.49357261    1586.04858355       1.00000000
  delc
    CONSTANT       1.00000000
  top
    INTERNAL  FACTOR  1.0
         0.00000000       0.00000000       0.00000000       0.00000000       0.00000000       0.00000000       0.00000000       0.00000000       0.00000000       0.00000000       0.00000000       0.00000000       0.00000000       0.00000000       0.00000000       0.00000000       0.00000000       0.00000000       0.00000000       0.00000000       0.00000000       0.00000000       0.00000000       0.00000000       0.00000000       0.00000000       0.00000000       0.00000000       0.00000000       0.00000000       0.00000000       0.00000000       0.00000000       0.00000000       0.00000000       0.00000000       0.00000000       0.00000000       0.00000000       0.00000000       0.00000000       0.00000000       0.00000000
  botm  LAYERED
    INTERNAL  FACTOR  1.0
         -20.00000000     -20.00000000     -20.00000000     -20.00000000     -20.00000000     -20.00000000     -20.00000000     -20.00000000     -20.00000000     -20.00000000     -20.00000000     -20.00000000     -20.00000000     -20.00000000     -20.00000000     -20.00000000     -20.00000000     -20.00000000     -20.00000000     -20.00000000     -20.00000000     -20.00000000     -20.00000000     -20.00000000     -20.00000000     -20.00000000     -20.00000000     -20.00000000     -20.00000000     -20.00000000     -20.00000000     -20.00000000     -20.00000000     -20.00000000     -20.00000000     -20.00000000     -20.00000000     -20.00000000     -20.00000000     -20.00000000     -20.00000000     -20.00000000     -20.00000000
    INTERNAL  FACTOR  1.0
         -60.00000000     -60.00000000     -60.00000000     -60.00000000     -60.00000000     -60.00000000     -60.00000000     -60.00000000     -60.00000000     -60.00000000     -60.00000000     -60.00000000     -60.00000000     -60.00000000     -60.00000000     -60.00000000     -60.00000000     -60.00000000     -60.00000000     -60.00000000     -60.00000000     -60.00000000     -60.00000000     -60.00000000     -60.00000000     -60.00000000     -60.00000000     -60.00000000     -60.00000000     -60.00000000     -60.00000000     -60.00000000     -60.00000000     -60.00000000     -60.00000000     -60.00000000     -60.00000000     -60.00000000     -60.00000000     -60.00000000     -60.00000000     -60.00000000     -60.00000000
    INTERNAL  FACTOR  1.0
         -70.00000000     -70.00000000     -70.00000000     -70.00000000     -70.00000000     -70.00000000     -70.00000000     -70.00000000     -70.00000000     -70.00000000     -70.00000000     -70.00000000     -70.00000000     -70.00000000     -70.00000000     -70.00000000     -70.00000000     -70.00000000     -70.00000000     -70.00000000     -70.00000000     -70.00000000     -70.00000000     -70.00000000     -70.00000000     -70.00000000     -70.00000000     -70.00000000     -70.00000000     -70.00000000     -70.00000000     -70.00000000     -70.00000000     -70.00000000     -70.00000000     -70.00000000     -70.00000000     -70.00000000     -70.00000000     -70.00000000     -70.00000000     -70.00000000     -70.00000000
    INTERNAL  FACTOR  1.0
        -100.00000000    -100.00000000    -100.00000000    -100.00000000    -100.00000000    -100.00000000    -100.00000000    -100.00000000    -100.00000000    -100.00000000    -100.00000000    -100.00000000    -100.00000000    -100.00000000    -100.00000000    -100.00000000    -100.00000000    -100.00000000    -100.00000000    -100.00000000    -100.00000000    -100.00000000    -100.00000000    -100.00000000    -100.00000000    -100.00000000    -100.00000000    -100.00000000    -100.00000000    -100.00000000    -100.00000000    -100.00000000    -100.00000000    -100.00000000    -100.00000000    -100.00000000    -100.00000000    -100.00000000    -100.00000000    -100.00000000    -100.00000000    -100.00000000    -100.00000000
  idomain  LAYERED
    INTERNAL  FACTOR  1
      2  2  2  2  2  2  2  2  2  2  2  2  2  2  2  2  2  2  2  2  2  2  2  2  2  2  1  1  1  1  1  1  1  1  1  1  1  1  1  1  1  1  3
    INTERNAL  FACTOR  1
      2  2  2  2  2  2  2  2  2  2  2  2  2  2  2  2  2  2  2  2  2  2  2  2  2  2  1  1  1  1  1  1  1  1  1  1  1  1  1  1  1  1  3
    INTERNAL  FACTOR  1
      2  2  2  2  2  2  2  2  2  2  2  2  2  2  2  2  2  2  2  2  2  2  2  2  2  2  1  1  1  1  1  1  1  1  1  1  1  1  1  1  1  1  3
    INTERNAL  FACTOR  1
      2  2  2  2  2  2  2  2  2  2  2  2  2  2  2  2  2  2  2  2  2  2  2  2  2  2  1  1  1  1  1  1  1  1  1  1  1  1  1  1  1  1  3
END griddata

