# File generated by Flopy version 3.4.3 on 12/16/2023 at 01:59:35.
BEGIN griddata
  strt  LAYERED
    INTERNAL  FACTOR  1.0
           4.20000000       4.20000000       4.20000000       4.20000000       4.20000000       4.20000000       4.20000000       4.20000000       4.20000000       4.20000000       4.20000000       4.20000000       4.20000000       4.20000000       4.20000000       4.20000000       4.20000000       4.20000000       4.20000000       4.20000000       4.20000000       4.20000000       4.20000000       4.20000000       4.20000000       4.20000000       4.20000000       4.20000000       4.20000000       4.20000000       4.20000000       4.20000000       4.20000000       4.20000000       4.20000000       4.20000000       4.20000000       4.20000000       4.20000000       4.20000000       4.20000000       4.20000000       4.20000000
    INTERNAL  FACTOR  1.0
           4.20000000       4.20000000       4.20000000       4.20000000       4.20000000       4.20000000       4.20000000       4.20000000       4.20000000       4.20000000       4.20000000       4.20000000       4.20000000       4.20000000       4.20000000       4.20000000       4.20000000       4.20000000       4.20000000       4.20000000       4.20000000       4.20000000       4.20000000       4.20000000       4.20000000       4.20000000       4.20000000       4.20000000       4.20000000       4.20000000       4.20000000       4.20000000       4.20000000       4.20000000       4.20000000       4.20000000       4.20000000       4.20000000       4.20000000       4.20000000       4.20000000       4.20000000       4.20000000
    INTERNAL  FACTOR  1.0
           2.10000000       2.10000000       2.10000000       2.10000000       2.10000000       2.10000000       2.10000000       2.10000000       2.10000000       2.10000000       2.10000000       2.10000000       2.10000000       2.10000000       2.10000000       2.10000000       2.10000000       2.10000000       2.10000000       2.10000000       2.10000000       2.10000000       2.10000000       2.10000000       2.10000000       2.10000000       2.10000000       2.10000000       2.10000000       2.10000000       2.10000000       2.10000000       2.10000000       2.10000000       2.10000000       2.10000000       2.10000000       2.10000000       2.10000000       2.10000000       2.10000000       2.10000000       2.10000000
    INTERNAL  FACTOR  1.0
           0.00000000       0.00000000       0.00000000       0.00000000       0.00000000       0.00000000       0.00000000       0.00000000       0.00000000       0.00000000       0.00000000       0.00000000       0.00000000       0.00000000       0.00000000       0.00000000       0.00000000       0.00000000       0.00000000       0.00000000       0.00000000       0.00000000       0.00000000       0.00000000       0.00000000       0.00000000       0.00000000       0.00000000       0.00000000       0.00000000       0.00000000       0.00000000       0.00000000       0.00000000       0.00000000       0.00000000       0.00000000       0.00000000       0.00000000       0.00000000       0.00000000       0.00000000       0.00000000
END griddata

