# File generated by Flopy version 3.4.3 on 12/11/2023 at 22:38:12.
BEGIN options
  COMPLEXITY  moderate
END options

