# File generated by Flopy version 3.4.3 on 12/11/2023 at 22:38:12.
BEGIN options
  TIME_UNITS  minutes
  START_DATE_TIME  1904-09-01t09:00
END options

BEGIN dimensions
  NPER  63
END dimensions

BEGIN perioddata
       5.00000000  1       1.25000000
       5.00000000  1       1.25000000
       5.00000000  1       1.25000000
       5.00000000  1       1.25000000
       5.00000000  1       1.25000000
       5.00000000  1       1.25000000
       5.00000000  1       1.25000000
       5.00000000  1       1.25000000
       5.00000000  1       1.25000000
       5.00000000  1       1.25000000
       5.00000000  1       1.25000000
       5.00000000  1       1.25000000
       5.00000000  1       1.25000000
       5.00000000  1       1.25000000
       5.00000000  1       1.25000000
       5.00000000  1       1.25000000
       5.00000000  1       1.25000000
       5.00000000  1       1.25000000
       5.00000000  1       1.25000000
       5.00000000  1       1.25000000
       5.00000000  1       1.25000000
       5.00000000  1       1.25000000
       5.00000000  1       1.25000000
       5.00000000  1       1.25000000
       5.00000000  1       1.25000000
       5.00000000  1       1.25000000
       5.00000000  1       1.25000000
       5.00000000  1       1.25000000
       5.00000000  1       1.25000000
       5.00000000  1       1.25000000
       5.00000000  1       1.25000000
       5.00000000  1       1.25000000
       5.00000000  1       1.25000000
       5.00000000  1       1.25000000
       5.00000000  1       1.25000000
       5.00000000  1       1.25000000
       5.00000000  1       1.25000000
       5.00000000  1       1.25000000
       5.00000000  1       1.25000000
       5.00000000  1       1.25000000
       5.00000000  1       1.25000000
       5.00000000  1       1.25000000
       5.00000000  1       1.25000000
       5.00000000  1       1.25000000
       5.00000000  1       1.25000000
       5.00000000  1       1.25000000
       5.00000000  1       1.25000000
       5.00000000  1       1.25000000
       5.00000000  1       1.25000000
       5.00000000  1       1.25000000
       5.00000000  1       1.25000000
       5.00000000  1       1.25000000
       5.00000000  1       1.25000000
       5.00000000  1       1.25000000
       5.00000000  1       1.25000000
       5.00000000  1       1.25000000
       5.00000000  1       1.25000000
       5.00000000  1       1.25000000
       5.00000000  1       1.25000000
       5.00000000  1       1.25000000
       5.00000000  1       1.25000000
       5.00000000  1       1.25000000
       5.00000000  1       1.25000000
END perioddata

