# File generated by Flopy version 3.4.3 on 12/05/2023 at 20:56:26.
BEGIN options
  SAVE_FLOWS
END options

BEGIN packages
  DIS6  /Users/Theo/GRWMODELS/python/Pennink_model/cases/Series2/GWF/Series2Gwf.dis  dis
  CHD6  /Users/Theo/GRWMODELS/python/Pennink_model/cases/Series2/GWF/Series2Gwf.chd  chd_0
  IC6  /Users/Theo/GRWMODELS/python/Pennink_model/cases/Series2/GWF/Series2Gwf.ic  ic
  NPF6  /Users/Theo/GRWMODELS/python/Pennink_model/cases/Series2/GWF/Series2Gwf.npf  npf
  OC6  /Users/Theo/GRWMODELS/python/Pennink_model/cases/Series2/GWF/Series2Gwf.oc  oc
END packages

