# File generated by Flopy version 3.4.3 on 12/05/2023 at 20:56:26.
BEGIN options
  SAVE_FLOWS
END options

BEGIN dimensions
  MAXBOUND  24
END dimensions

BEGIN period  1
  21 1 1      45.20000000
  21 1 2      45.20000000
  21 1 3      45.20000000
  21 1 4      45.20000000
  21 1 5      45.20000000
  21 1 6      45.20000000
  22 1 1      45.20000000
  22 1 2      45.20000000
  22 1 3      45.20000000
  22 1 4      45.20000000
  22 1 5      45.20000000
  22 1 6      45.20000000
  23 1 1      45.20000000
  23 1 2      45.20000000
  23 1 3      45.20000000
  23 1 4      45.20000000
  23 1 5      45.20000000
  24 1 2      45.20000000
  24 1 3      45.20000000
  24 1 4      45.20000000
  24 1 5      45.20000000
  20 1 63      45.70000000
  20 1 64      45.70000000
  20 1 65      45.70000000
END period  1

