# File generated by Flopy version 3.4.3 on 12/11/2023 at 22:38:12.
BEGIN griddata
  strt  LAYERED
    INTERNAL  FACTOR  1.0
          50.45000000      50.45000000      50.45000000      50.45000000      50.45000000      50.45000000      50.45000000      50.45000000      50.45000000      50.45000000      50.45000000      50.45000000      50.45000000      50.45000000      50.45000000      50.45000000      50.45000000      50.45000000      50.45000000      50.45000000      50.45000000      50.45000000      50.45000000      50.45000000      50.45000000      50.45000000      50.45000000      50.45000000      50.45000000      50.45000000      50.45000000      50.45000000      50.45000000      50.45000000      50.45000000      50.45000000      50.45000000      50.45000000      50.45000000      50.45000000      50.45000000      50.45000000      50.45000000      50.45000000      50.45000000      50.45000000      50.45000000      50.45000000      50.45000000      50.45000000      50.45000000      50.45000000      50.45000000      50.45000000      50.45000000      50.45000000      50.45000000      50.45000000      50.45000000      50.45000000      50.45000000      50.45000000      50.45000000      50.45000000      50.45000000
    INTERNAL  FACTOR  1.0
          50.45000000      50.45000000      50.45000000      50.45000000      50.45000000      50.45000000      50.45000000      50.45000000      50.45000000      50.45000000      50.45000000      50.45000000      50.45000000      50.45000000      50.45000000      50.45000000      50.45000000      50.45000000      50.45000000      50.45000000      50.45000000      50.45000000      50.45000000      50.45000000      50.45000000      50.45000000      50.45000000      50.45000000      50.45000000      50.45000000      50.45000000      50.45000000      50.45000000      50.45000000      50.45000000      50.45000000      50.45000000      50.45000000      50.45000000      50.45000000      50.45000000      50.45000000      50.45000000      50.45000000      50.45000000      50.45000000      50.45000000      50.45000000      50.45000000      50.45000000      50.45000000      50.45000000      50.45000000      50.45000000      50.45000000      50.45000000      50.45000000      50.45000000      50.45000000      50.45000000      50.45000000      50.45000000      50.45000000      50.45000000      50.45000000
    INTERNAL  FACTOR  1.0
          50.45000000      50.45000000      50.45000000      50.45000000      50.45000000      50.45000000      50.45000000      50.45000000      50.45000000      50.45000000      50.45000000      50.45000000      50.45000000      50.45000000      50.45000000      50.45000000      50.45000000      50.45000000      50.45000000      50.45000000      50.45000000      50.45000000      50.45000000      50.45000000      50.45000000      50.45000000      50.45000000      50.45000000      50.45000000      50.45000000      50.45000000      50.45000000      50.45000000      50.45000000      50.45000000      50.45000000      50.45000000      50.45000000      50.45000000      50.45000000      50.45000000      50.45000000      50.45000000      50.45000000      50.45000000      50.45000000      50.45000000      50.45000000      50.45000000      50.45000000      50.45000000      50.45000000      50.45000000      50.45000000      50.45000000      50.45000000      50.45000000      50.45000000      50.45000000      50.45000000      50.45000000      50.45000000      50.45000000      50.45000000      50.45000000
    INTERNAL  FACTOR  1.0
          50.45000000      50.45000000      50.45000000      50.45000000      50.45000000      50.45000000      50.45000000      50.45000000      50.45000000      50.45000000      50.45000000      50.45000000      50.45000000      50.45000000      50.45000000      50.45000000      50.45000000      50.45000000      50.45000000      50.45000000      50.45000000      50.45000000      50.45000000      50.45000000      50.45000000      50.45000000      50.45000000      50.45000000      50.45000000      50.45000000      50.45000000      50.45000000      50.45000000      50.45000000      50.45000000      50.45000000      50.45000000      50.45000000      50.45000000      50.45000000      50.45000000      50.45000000      50.45000000      50.45000000      50.45000000      50.45000000      50.45000000      50.45000000      50.45000000      50.45000000      50.45000000      50.45000000      50.45000000      50.45000000      50.45000000      50.45000000      50.45000000      50.45000000      50.45000000      50.45000000      50.45000000      50.45000000      50.45000000      50.45000000      50.45000000
    INTERNAL  FACTOR  1.0
          50.45000000      50.45000000      50.45000000      50.45000000      50.45000000      50.45000000      50.45000000      50.45000000      50.45000000      50.45000000      50.45000000      50.45000000      50.45000000      50.45000000      50.45000000      50.45000000      50.45000000      50.45000000      50.45000000      50.45000000      50.45000000      50.45000000      50.45000000      50.45000000      50.45000000      50.45000000      50.45000000      50.45000000      50.45000000      50.45000000      50.45000000      50.45000000      50.45000000      50.45000000      50.45000000      50.45000000      50.45000000      50.45000000      50.45000000      50.45000000      50.45000000      50.45000000      50.45000000      50.45000000      50.45000000      50.45000000      50.45000000      50.45000000      50.45000000      50.45000000      50.45000000      50.45000000      50.45000000      50.45000000      50.45000000      50.45000000      50.45000000      50.45000000      50.45000000      50.45000000      50.45000000      50.45000000      50.45000000      50.45000000      50.45000000
    INTERNAL  FACTOR  1.0
          50.45000000      50.45000000      50.45000000      50.45000000      50.45000000      50.45000000      50.45000000      50.45000000      50.45000000      50.45000000      50.45000000      50.45000000      50.45000000      50.45000000      50.45000000      50.45000000      50.45000000      50.45000000      50.45000000      50.45000000      50.45000000      50.45000000      50.45000000      50.45000000      50.45000000      50.45000000      50.45000000      50.45000000      50.45000000      50.45000000      50.45000000      50.45000000      50.45000000      50.45000000      50.45000000      50.45000000      50.45000000      50.45000000      50.45000000      50.45000000      50.45000000      50.45000000      50.45000000      50.45000000      50.45000000      50.45000000      50.45000000      50.45000000      50.45000000      50.45000000      50.45000000      50.45000000      50.45000000      50.45000000      50.45000000      50.45000000      50.45000000      50.45000000      50.45000000      50.45000000      50.45000000      50.45000000      50.45000000      50.45000000      50.45000000
    INTERNAL  FACTOR  1.0
          50.45000000      50.45000000      50.45000000      50.45000000      50.45000000      50.45000000      50.45000000      50.45000000      50.45000000      50.45000000      50.45000000      50.45000000      50.45000000      50.45000000      50.45000000      50.45000000      50.45000000      50.45000000      50.45000000      50.45000000      50.45000000      50.45000000      50.45000000      50.45000000      50.45000000      50.45000000      50.45000000      50.45000000      50.45000000      50.45000000      50.45000000      50.45000000      50.45000000      50.45000000      50.45000000      50.45000000      50.45000000      50.45000000      50.45000000      50.45000000      50.45000000      50.45000000      50.45000000      50.45000000      50.45000000      50.45000000      50.45000000      50.45000000      50.45000000      50.45000000      50.45000000      50.45000000      50.45000000      50.45000000      50.45000000      50.45000000      50.45000000      50.45000000      50.45000000      50.45000000      50.45000000      50.45000000      50.45000000      50.45000000      50.45000000
    INTERNAL  FACTOR  1.0
          50.45000000      50.45000000      50.45000000      50.45000000      50.45000000      50.45000000      50.45000000      50.45000000      50.45000000      50.45000000      50.45000000      50.45000000      50.45000000      50.45000000      50.45000000      50.45000000      50.45000000      50.45000000      50.45000000      50.45000000      50.45000000      50.45000000      50.45000000      50.45000000      50.45000000      50.45000000      50.45000000      50.45000000      50.45000000      50.45000000      50.45000000      50.45000000      50.45000000      50.45000000      50.45000000      50.45000000      50.45000000      50.45000000      50.45000000      50.45000000      50.45000000      50.45000000      50.45000000      50.45000000      50.45000000      50.45000000      50.45000000      50.45000000      50.45000000      50.45000000      50.45000000      50.45000000      50.45000000      50.45000000      50.45000000      50.45000000      50.45000000      50.45000000      50.45000000      50.45000000      50.45000000      50.45000000      50.45000000      50.45000000      50.45000000
    INTERNAL  FACTOR  1.0
          50.45000000      50.45000000      50.45000000      50.45000000      50.45000000      50.45000000      50.45000000      50.45000000      50.45000000      50.45000000      50.45000000      50.45000000      50.45000000      50.45000000      50.45000000      50.45000000      50.45000000      50.45000000      50.45000000      50.45000000      50.45000000      50.45000000      50.45000000      50.45000000      50.45000000      50.45000000      50.45000000      50.45000000      50.45000000      50.45000000      50.45000000      50.45000000      50.45000000      50.45000000      50.45000000      50.45000000      50.45000000      50.45000000      50.45000000      50.45000000      50.45000000      50.45000000      50.45000000      50.45000000      50.45000000      50.45000000      50.45000000      50.45000000      50.45000000      50.45000000      50.45000000      50.45000000      50.45000000      50.45000000      50.45000000      50.45000000      50.45000000      50.45000000      50.45000000      50.45000000      50.45000000      50.45000000      50.45000000      50.45000000      50.45000000
    INTERNAL  FACTOR  1.0
          50.45000000      50.45000000      50.45000000      50.45000000      50.45000000      50.45000000      50.45000000      50.45000000      50.45000000      50.45000000      50.45000000      50.45000000      50.45000000      50.45000000      50.45000000      50.45000000      50.45000000      50.45000000      50.45000000      50.45000000      50.45000000      50.45000000      50.45000000      50.45000000      50.45000000      50.45000000      50.45000000      50.45000000      50.45000000      50.45000000      50.45000000      50.45000000      50.45000000      50.45000000      50.45000000      50.45000000      50.45000000      50.45000000      50.45000000      50.45000000      50.45000000      50.45000000      50.45000000      50.45000000      50.45000000      50.45000000      50.45000000      50.45000000      50.45000000      50.45000000      50.45000000      50.45000000      50.45000000      50.45000000      50.45000000      50.45000000      50.45000000      50.45000000      50.45000000      50.45000000      50.45000000      50.45000000      50.45000000      50.45000000      50.45000000
    INTERNAL  FACTOR  1.0
          50.45000000      50.45000000      50.45000000      50.45000000      50.45000000      50.45000000      50.45000000      50.45000000      50.45000000      50.45000000      50.45000000      50.45000000      50.45000000      50.45000000      50.45000000      50.45000000      50.45000000      50.45000000      50.45000000      50.45000000      50.45000000      50.45000000      50.45000000      50.45000000      50.45000000      50.45000000      50.45000000      50.45000000      50.45000000      50.45000000      50.45000000      50.45000000      50.45000000      50.45000000      50.45000000      50.45000000      50.45000000      50.45000000      50.45000000      50.45000000      50.45000000      50.45000000      50.45000000      50.45000000      50.45000000      50.45000000      50.45000000      50.45000000      50.45000000      50.45000000      50.45000000      50.45000000      50.45000000      50.45000000      50.45000000      50.45000000      50.45000000      50.45000000      50.45000000      50.45000000      50.45000000      50.45000000      50.45000000      50.45000000      50.45000000
    INTERNAL  FACTOR  1.0
          50.45000000      50.45000000      50.45000000      50.45000000      50.45000000      50.45000000      50.45000000      50.45000000      50.45000000      50.45000000      50.45000000      50.45000000      50.45000000      50.45000000      50.45000000      50.45000000      50.45000000      50.45000000      50.45000000      50.45000000      50.45000000      50.45000000      50.45000000      50.45000000      50.45000000      50.45000000      50.45000000      50.45000000      50.45000000      50.45000000      50.45000000      50.45000000      50.45000000      50.45000000      50.45000000      50.45000000      50.45000000      50.45000000      50.45000000      50.45000000      50.45000000      50.45000000      50.45000000      50.45000000      50.45000000      50.45000000      50.45000000      50.45000000      50.45000000      50.45000000      50.45000000      50.45000000      50.45000000      50.45000000      50.45000000      50.45000000      50.45000000      50.45000000      50.45000000      50.45000000      50.45000000      50.45000000      50.45000000      50.45000000      50.45000000
    INTERNAL  FACTOR  1.0
          50.45000000      50.45000000      50.45000000      50.45000000      50.45000000      50.45000000      50.45000000      50.45000000      50.45000000      50.45000000      50.45000000      50.45000000      50.45000000      50.45000000      50.45000000      50.45000000      50.45000000      50.45000000      50.45000000      50.45000000      50.45000000      50.45000000      50.45000000      50.45000000      50.45000000      50.45000000      50.45000000      50.45000000      50.45000000      50.45000000      50.45000000      50.45000000      50.45000000      50.45000000      50.45000000      50.45000000      50.45000000      50.45000000      50.45000000      50.45000000      50.45000000      50.45000000      50.45000000      50.45000000      50.45000000      50.45000000      50.45000000      50.45000000      50.45000000      50.45000000      50.45000000      50.45000000      50.45000000      50.45000000      50.45000000      50.45000000      50.45000000      50.45000000      50.45000000      50.45000000      50.45000000      50.45000000      50.45000000      50.45000000      50.45000000
    INTERNAL  FACTOR  1.0
          50.45000000      50.45000000      50.45000000      50.45000000      50.45000000      50.45000000      50.45000000      50.45000000      50.45000000      50.45000000      50.45000000      50.45000000      50.45000000      50.45000000      50.45000000      50.45000000      50.45000000      50.45000000      50.45000000      50.45000000      50.45000000      50.45000000      50.45000000      50.45000000      50.45000000      50.45000000      50.45000000      50.45000000      50.45000000      50.45000000      50.45000000      50.45000000      50.45000000      50.45000000      50.45000000      50.45000000      50.45000000      50.45000000      50.45000000      50.45000000      50.45000000      50.45000000      50.45000000      50.45000000      50.45000000      50.45000000      50.45000000      50.45000000      50.45000000      50.45000000      50.45000000      50.45000000      50.45000000      50.45000000      50.45000000      50.45000000      50.45000000      50.45000000      50.45000000      50.45000000      50.45000000      50.45000000      50.45000000      50.45000000      50.45000000
    INTERNAL  FACTOR  1.0
          50.45000000      50.45000000      50.45000000      50.45000000      50.45000000      50.45000000      50.45000000      50.45000000      50.45000000      50.45000000      50.45000000      50.45000000      50.45000000      50.45000000      50.45000000      50.45000000      50.45000000      50.45000000      50.45000000      50.45000000      50.45000000      50.45000000      50.45000000      50.45000000      50.45000000      50.45000000      50.45000000      50.45000000      50.45000000      50.45000000      50.45000000      50.45000000      50.45000000      50.45000000      50.45000000      50.45000000      50.45000000      50.45000000      50.45000000      50.45000000      50.45000000      50.45000000      50.45000000      50.45000000      50.45000000      50.45000000      50.45000000      50.45000000      50.45000000      50.45000000      50.45000000      50.45000000      50.45000000      50.45000000      50.45000000      50.45000000      50.45000000      50.45000000      50.45000000      50.45000000      50.45000000      50.45000000      50.45000000      50.45000000      50.45000000
    INTERNAL  FACTOR  1.0
          50.45000000      50.45000000      50.45000000      50.45000000      50.45000000      50.45000000      50.45000000      50.45000000      50.45000000      50.45000000      50.45000000      50.45000000      50.45000000      50.45000000      50.45000000      50.45000000      50.45000000      50.45000000      50.45000000      50.45000000      50.45000000      50.45000000      50.45000000      50.45000000      50.45000000      50.45000000      50.45000000      50.45000000      50.45000000      50.45000000      50.45000000      50.45000000      50.45000000      50.45000000      50.45000000      50.45000000      50.45000000      50.45000000      50.45000000      50.45000000      50.45000000      50.45000000      50.45000000      50.45000000      50.45000000      50.45000000      50.45000000      50.45000000      50.45000000      50.45000000      50.45000000      50.45000000      50.45000000      50.45000000      50.45000000      50.45000000      50.45000000      50.45000000      50.45000000      50.45000000      50.45000000      50.45000000      50.45000000      50.45000000      50.45000000
    INTERNAL  FACTOR  1.0
          50.45000000      50.45000000      50.45000000      50.45000000      50.45000000      50.45000000      50.45000000      50.45000000      50.45000000      50.45000000      50.45000000      50.45000000      50.45000000      50.45000000      50.45000000      50.45000000      50.45000000      50.45000000      50.45000000      50.45000000      50.45000000      50.45000000      50.45000000      50.45000000      50.45000000      50.45000000      50.45000000      50.45000000      50.45000000      50.45000000      50.45000000      50.45000000      50.45000000      50.45000000      50.45000000      50.45000000      50.45000000      50.45000000      50.45000000      50.45000000      50.45000000      50.45000000      50.45000000      50.45000000      50.45000000      50.45000000      50.45000000      50.45000000      50.45000000      50.45000000      50.45000000      50.45000000      50.45000000      50.45000000      50.45000000      50.45000000      50.45000000      50.45000000      50.45000000      50.45000000      50.45000000      50.45000000      50.45000000      50.45000000      50.45000000
    INTERNAL  FACTOR  1.0
          50.45000000      50.45000000      50.45000000      50.45000000      50.45000000      50.45000000      50.45000000      50.45000000      50.45000000      50.45000000      50.45000000      50.45000000      50.45000000      50.45000000      50.45000000      50.45000000      50.45000000      50.45000000      50.45000000      50.45000000      50.45000000      50.45000000      50.45000000      50.45000000      50.45000000      50.45000000      50.45000000      50.45000000      50.45000000      50.45000000      50.45000000      50.45000000      50.45000000      50.45000000      50.45000000      50.45000000      50.45000000      50.45000000      50.45000000      50.45000000      50.45000000      50.45000000      50.45000000      50.45000000      50.45000000      50.45000000      50.45000000      50.45000000      50.45000000      50.45000000      50.45000000      50.45000000      50.45000000      50.45000000      50.45000000      50.45000000      50.45000000      50.45000000      50.45000000      50.45000000      50.45000000      50.45000000      50.45000000      50.45000000      50.45000000
    INTERNAL  FACTOR  1.0
          50.45000000      50.45000000      50.45000000      50.45000000      50.45000000      50.45000000      50.45000000      50.45000000      50.45000000      50.45000000      50.45000000      50.45000000      50.45000000      50.45000000      50.45000000      50.45000000      50.45000000      50.45000000      50.45000000      50.45000000      50.45000000      50.45000000      50.45000000      50.45000000      50.45000000      50.45000000      50.45000000      50.45000000      50.45000000      50.45000000      50.45000000      50.45000000      50.45000000      50.45000000      50.45000000      50.45000000      50.45000000      50.45000000      50.45000000      50.45000000      50.45000000      50.45000000      50.45000000      50.45000000      50.45000000      50.45000000      50.45000000      50.45000000      50.45000000      50.45000000      50.45000000      50.45000000      50.45000000      50.45000000      50.45000000      50.45000000      50.45000000      50.45000000      50.45000000      50.45000000      50.45000000      50.45000000      50.45000000      50.45000000      50.45000000
    INTERNAL  FACTOR  1.0
          50.45000000      50.45000000      50.45000000      50.45000000      50.45000000      50.45000000      50.45000000      50.45000000      50.45000000      50.45000000      50.45000000      50.45000000      50.45000000      50.45000000      50.45000000      50.45000000      50.45000000      50.45000000      50.45000000      50.45000000      50.45000000      50.45000000      50.45000000      50.45000000      50.45000000      50.45000000      50.45000000      50.45000000      50.45000000      50.45000000      50.45000000      50.45000000      50.45000000      50.45000000      50.45000000      50.45000000      50.45000000      50.45000000      50.45000000      50.45000000      50.45000000      50.45000000      50.45000000      50.45000000      50.45000000      50.45000000      50.45000000      50.45000000      50.45000000      50.45000000      50.45000000      50.45000000      50.45000000      50.45000000      50.45000000      50.45000000      50.45000000      50.45000000      50.45000000      50.45000000      50.45000000      50.45000000      45.70000000      45.70000000      45.70000000
    INTERNAL  FACTOR  1.0
          45.20000000      45.20000000      45.20000000      45.20000000      45.20000000      45.20000000      50.45000000      50.45000000      50.45000000      50.45000000      50.45000000      50.45000000      50.45000000      50.45000000      50.45000000      50.45000000      50.45000000      50.45000000      50.45000000      50.45000000      50.45000000      50.45000000      50.45000000      50.45000000      50.45000000      50.45000000      50.45000000      50.45000000      50.45000000      50.45000000      50.45000000      50.45000000      50.45000000      50.45000000      50.45000000      50.45000000      50.45000000      50.45000000      50.45000000      50.45000000      50.45000000      50.45000000      50.45000000      50.45000000      50.45000000      50.45000000      50.45000000      50.45000000      50.45000000      50.45000000      50.45000000      50.45000000      50.45000000      50.45000000      50.45000000      50.45000000      50.45000000      50.45000000      50.45000000      50.45000000      50.45000000      50.45000000      50.45000000      50.45000000      50.45000000
    INTERNAL  FACTOR  1.0
          45.20000000      45.20000000      45.20000000      45.20000000      45.20000000      45.20000000      50.45000000      50.45000000      50.45000000      50.45000000      50.45000000      50.45000000      50.45000000      50.45000000      50.45000000      50.45000000      50.45000000      50.45000000      50.45000000      50.45000000      50.45000000      50.45000000      50.45000000      50.45000000      50.45000000      50.45000000      50.45000000      50.45000000      50.45000000      50.45000000      50.45000000      50.45000000      50.45000000      50.45000000      50.45000000      50.45000000      50.45000000      50.45000000      50.45000000      50.45000000      50.45000000      50.45000000      50.45000000      50.45000000      50.45000000      50.45000000      50.45000000      50.45000000      50.45000000      50.45000000      50.45000000      50.45000000      50.45000000      50.45000000      50.45000000      50.45000000      50.45000000      50.45000000      50.45000000      50.45000000      50.45000000      50.45000000      50.45000000      50.45000000      50.45000000
    INTERNAL  FACTOR  1.0
          45.20000000      45.20000000      45.20000000      45.20000000      45.20000000      50.45000000      50.45000000      50.45000000      50.45000000      50.45000000      50.45000000      50.45000000      50.45000000      50.45000000      50.45000000      50.45000000      50.45000000      50.45000000      50.45000000      50.45000000      50.45000000      50.45000000      50.45000000      50.45000000      50.45000000      50.45000000      50.45000000      50.45000000      50.45000000      50.45000000      50.45000000      50.45000000      50.45000000      50.45000000      50.45000000      50.45000000      50.45000000      50.45000000      50.45000000      50.45000000      50.45000000      50.45000000      50.45000000      50.45000000      50.45000000      50.45000000      50.45000000      50.45000000      50.45000000      50.45000000      50.45000000      50.45000000      50.45000000      50.45000000      50.45000000      50.45000000      50.45000000      50.45000000      50.45000000      50.45000000      50.45000000      50.45000000      50.45000000      50.45000000      50.45000000
    INTERNAL  FACTOR  1.0
          50.45000000      45.20000000      45.20000000      45.20000000      45.20000000      50.45000000      50.45000000      50.45000000      50.45000000      50.45000000      50.45000000      50.45000000      50.45000000      50.45000000      50.45000000      50.45000000      50.45000000      50.45000000      50.45000000      50.45000000      50.45000000      50.45000000      50.45000000      50.45000000      50.45000000      50.45000000      50.45000000      50.45000000      50.45000000      50.45000000      50.45000000      50.45000000      50.45000000      50.45000000      50.45000000      50.45000000      50.45000000      50.45000000      50.45000000      50.45000000      50.45000000      50.45000000      50.45000000      50.45000000      50.45000000      50.45000000      50.45000000      50.45000000      50.45000000      50.45000000      50.45000000      50.45000000      50.45000000      50.45000000      50.45000000      50.45000000      50.45000000      50.45000000      50.45000000      50.45000000      50.45000000      50.45000000      50.45000000      50.45000000      50.45000000
    INTERNAL  FACTOR  1.0
          50.45000000      50.45000000      50.45000000      50.45000000      50.45000000      50.45000000      50.45000000      50.45000000      50.45000000      50.45000000      50.45000000      50.45000000      50.45000000      50.45000000      50.45000000      50.45000000      50.45000000      50.45000000      50.45000000      50.45000000      50.45000000      50.45000000      50.45000000      50.45000000      50.45000000      50.45000000      50.45000000      50.45000000      50.45000000      50.45000000      50.45000000      50.45000000      50.45000000      50.45000000      50.45000000      50.45000000      50.45000000      50.45000000      50.45000000      50.45000000      50.45000000      50.45000000      50.45000000      50.45000000      50.45000000      50.45000000      50.45000000      50.45000000      50.45000000      50.45000000      50.45000000      50.45000000      50.45000000      50.45000000      50.45000000      50.45000000      50.45000000      50.45000000      50.45000000      50.45000000      50.45000000      50.45000000      50.45000000      50.45000000      50.45000000
    INTERNAL  FACTOR  1.0
          50.45000000      50.45000000      50.45000000      50.45000000      50.45000000      50.45000000      50.45000000      50.45000000      50.45000000      50.45000000      50.45000000      50.45000000      50.45000000      50.45000000      50.45000000      50.45000000      50.45000000      50.45000000      50.45000000      50.45000000      50.45000000      50.45000000      50.45000000      50.45000000      50.45000000      50.45000000      50.45000000      50.45000000      50.45000000      50.45000000      50.45000000      50.45000000      50.45000000      50.45000000      50.45000000      50.45000000      50.45000000      50.45000000      50.45000000      50.45000000      50.45000000      50.45000000      50.45000000      50.45000000      50.45000000      50.45000000      50.45000000      50.45000000      50.45000000      50.45000000      50.45000000      50.45000000      50.45000000      50.45000000      50.45000000      50.45000000      50.45000000      50.45000000      50.45000000      50.45000000      50.45000000      50.45000000      50.45000000      50.45000000      50.45000000
    INTERNAL  FACTOR  1.0