# File generated by Flopy version 3.4.3 on 12/11/2023 at 22:38:12.
BEGIN options
  BUDGET  FILEOUT  /Users/Theo/GRWMODELS/python/Pennink-Model/cases/Series2/SIM/Series2Gwf.cbc
  HEAD  FILEOUT  /Users/Theo/GRWMODELS/python/Pennink-Model/cases/Series2/SIM/Series2Gwf.hds
END options

BEGIN period  1
  SAVE  HEAD  ALL
  SAVE  BUDGET  ALL
END period  1

