# File generated by Flopy version 3.4.3 on 12/05/2023 at 20:56:26.
BEGIN options
  SAVE_FLOWS
  SAVE_SPECIFIC_DISCHARGE
  SAVE_SATURATION
END options

BEGIN griddata
  icelltype
    CONSTANT  0
  k  LAYERED
    INTERNAL  FACTOR  1.0
           4.51388889       4.51388889       4.51388889       4.51388889       4.51388889       4.51388889       4.51388889       4.51388889       4.51388889       4.51388889       4.51388889       4.51388889       4.51388889       4.51388889       4.51388889       4.51388889       4.51388889       4.51388889       4.51388889       4.51388889       4.51388889       4.51388889       4.51388889       4.51388889       4.51388889       4.51388889       4.51388889       4.51388889       4.51388889       4.51388889       4.51388889       4.51388889       4.51388889       4.51388889       4.51388889       4.51388889       4.51388889       4.51388889       4.51388889       4.51388889       4.51388889       4.51388889       4.51388889       4.51388889       4.51388889       4.51388889       4.51388889       4.51388889       4.51388889       4.51388889       4.51388889       4.51388889       4.51388889       4.51388889       4.51388889       4.51388889       4.51388889       4.51388889       4.51388889       4.51388889       4.51388889       4.51388889       4.51388889       4.51388889       4.51388889
    INTERNAL  FACTOR  1.0
           4.51388889       4.51388889       4.51388889       4.51388889       4.51388889       4.51388889       4.51388889       4.51388889       4.51388889       4.51388889       4.51388889       4.51388889       4.51388889       4.51388889       4.51388889       4.51388889       4.51388889       4.51388889       4.51388889       4.51388889       4.51388889       4.51388889       4.51388889       4.51388889       4.51388889       4.51388889       4.51388889       4.51388889       4.51388889       4.51388889       4.51388889       4.51388889       4.51388889       4.51388889       4.51388889       4.51388889       4.51388889       4.51388889       4.51388889       4.51388889       4.51388889       4.51388889       4.51388889       4.51388889       4.51388889       4.51388889       4.51388889       4.51388889       4.51388889       4.51388889       4.51388889       4.51388889       4.51388889       4.51388889       4.51388889       4.51388889       4.51388889       4.51388889       4.51388889       4.51388889       4.51388889       4.51388889       4.51388889       4.51388889       4.51388889
    INTERNAL  FACTOR  1.0
           4.51388889       4.51388889       4.51388889       4.51388889       4.51388889       4.51388889       4.51388889       4.51388889       4.51388889       4.51388889       4.51388889       4.51388889       4.51388889       4.51388889       4.51388889       4.51388889       4.51388889       4.51388889       4.51388889       4.51388889       4.51388889       4.51388889       4.51388889       4.51388889       4.51388889       4.51388889       4.51388889       4.51388889       4.51388889       4.51388889       4.51388889       4.51388889       4.51388889       4.51388889       4.51388889       4.51388889       4.51388889       4.51388889       4.51388889       4.51388889       4.51388889       4.51388889       4.51388889       4.51388889       4.51388889       4.51388889       4.51388889       4.51388889       4.51388889       4.51388889       4.51388889       4.51388889       4.51388889       4.51388889       4.51388889       4.51388889       4.51388889       4.51388889       4.51388889       4.51388889       4.51388889       4.51388889       4.51388889       4.51388889       4.51388889
    INTERNAL  FACTOR  1.0
           4.51388889       4.51388889       4.51388889       4.51388889       4.51388889       4.51388889       4.51388889       4.51388889       4.51388889       4.51388889       4.51388889       4.51388889       4.51388889       4.51388889       4.51388889       4.51388889       4.51388889       4.51388889       4.51388889       4.51388889       4.51388889       4.51388889       4.51388889       4.51388889       4.51388889       4.51388889       4.51388889       4.51388889       4.51388889       4.51388889       4.51388889       4.51388889       4.51388889       4.51388889       4.51388889       4.51388889       4.51388889       4.51388889       4.51388889       4.51388889       4.51388889       4.51388889       4.51388889       4.51388889       4.51388889       4.51388889       4.51388889       4.51388889       4.51388889       4.51388889       4.51388889       4.51388889       4.51388889       4.51388889       4.51388889       4.51388889       4.51388889       4.51388889       4.51388889       4.51388889       4.51388889       4.51388889       4.51388889       4.51388889       4.51388889
    INTERNAL  FACTOR  1.0
           4.51388889       4.51388889       4.51388889       4.51388889       4.51388889       4.51388889       4.51388889       4.51388889       4.51388889       4.51388889       4.51388889       4.51388889       4.51388889       4.51388889       4.51388889       4.51388889       4.51388889       4.51388889       4.51388889       4.51388889       4.51388889       4.51388889       4.51388889       4.51388889       4.51388889       4.51388889       4.51388889       4.51388889       4.51388889       4.51388889       4.51388889       4.51388889       4.51388889       4.51388889       4.51388889       4.51388889       4.51388889       4.51388889       4.51388889       4.51388889       4.51388889       4.51388889       4.51388889       4.51388889       4.51388889       4.51388889       4.51388889       4.51388889       4.51388889       4.51388889       4.51388889       4.51388889       4.51388889       4.51388889       4.51388889       4.51388889       4.51388889       4.51388889       4.51388889       4.51388889       4.51388889       4.51388889       4.51388889       4.51388889       4.51388889
    INTERNAL  FACTOR  1.0
           4.51388889       4.51388889       4.51388889       4.51388889       4.51388889       4.51388889       4.51388889       4.51388889       4.51388889       4.51388889       4.51388889       4.51388889       4.51388889       4.51388889       4.51388889       4.51388889       4.51388889       4.51388889       4.51388889       4.51388889       4.51388889       4.51388889       4.51388889       4.51388889       4.51388889       4.51388889       4.51388889       4.51388889       4.51388889       4.51388889       4.51388889       4.51388889       4.51388889       4.51388889       4.51388889       4.51388889       4.51388889       4.51388889       4.51388889       4.51388889       4.51388889       4.51388889       4.51388889       4.51388889       4.51388889       4.51388889       4.51388889       4.51388889       4.51388889       4.51388889       4.51388889       4.51388889       4.51388889       4.51388889       4.51388889       4.51388889       4.51388889       4.51388889       4.51388889       4.51388889       4.51388889       4.51388889       4.51388889       4.51388889       4.51388889
    INTERNAL  FACTOR  1.0
           4.51388889       4.51388889       4.51388889       4.51388889       4.51388889       4.51388889       4.51388889       4.51388889       4.51388889       4.51388889       4.51388889       4.51388889       4.51388889       4.51388889       4.51388889       4.51388889       4.51388889       4.51388889       4.51388889       4.51388889       4.51388889       4.51388889       4.51388889       4.51388889       4.51388889       4.51388889       4.51388889       4.51388889       4.51388889       4.51388889       4.51388889       4.51388889       4.51388889       4.51388889       4.51388889       4.51388889       4.51388889       4.51388889       4.51388889       4.51388889       4.51388889       4.51388889       4.51388889       4.51388889       4.51388889       4.51388889       4.51388889       4.51388889       4.51388889       4.51388889       4.51388889       4.51388889       4.51388889       4.51388889       4.51388889       4.51388889       4.51388889       4.51388889       4.51388889       4.51388889       4.51388889       4.51388889       4.51388889       4.51388889       4.51388889
    INTERNAL  FACTOR  1.0
           4.51388889       4.51388889       4.51388889       4.51388889       4.51388889       4.51388889       4.51388889       4.51388889       4.51388889       4.51388889       4.51388889       4.51388889       4.51388889       4.51388889       4.51388889       4.51388889       4.51388889       4.51388889       4.51388889       4.51388889       4.51388889       4.51388889       4.51388889       4.51388889       4.51388889       4.51388889       4.51388889       4.51388889       4.51388889       4.51388889       4.51388889       4.51388889       4.51388889       4.51388889       4.51388889       4.51388889       4.51388889       4.51388889       4.51388889       4.51388889       4.51388889       4.51388889       4.51388889       4.51388889       4.51388889       4.51388889       4.51388889       4.51388889       4.51388889       4.51388889       4.51388889       4.51388889       4.51388889       4.51388889       4.51388889       4.51388889       4.51388889       4.51388889       4.51388889       4.51388889       4.51388889       4.51388889       4.51388889       4.51388889       4.51388889
    INTERNAL  FACTOR  1.0
           4.51388889       4.51388889       4.51388889       4.51388889       4.51388889       4.51388889       4.51388889       4.51388889       4.51388889       4.51388889       4.51388889       4.51388889       4.51388889       4.51388889       4.51388889       4.51388889       4.51388889       4.51388889       4.51388889       4.51388889       4.51388889       4.51388889       4.51388889       4.51388889       4.51388889       4.51388889       4.51388889       4.51388889       4.51388889       4.51388889       4.51388889       4.51388889       4.51388889       4.51388889       4.51388889       4.51388889       4.51388889       4.51388889       4.51388889       4.51388889       4.51388889       4.51388889       4.51388889       4.51388889       4.51388889       4.51388889       4.51388889       4.51388889       4.51388889       4.51388889       4.51388889       4.51388889       4.51388889       4.51388889       4.51388889       4.51388889       4.51388889       4.51388889       4.51388889       4.51388889       4.51388889       4.51388889       4.51388889       4.51388889       4.51388889
    INTERNAL  FACTOR  1.0
           4.51388889       4.51388889       4.51388889       4.51388889       4.51388889       4.51388889       4.51388889       4.51388889       4.51388889       4.51388889       4.51388889       4.51388889       4.51388889       4.51388889       4.51388889       4.51388889       4.51388889       4.51388889       4.51388889       4.51388889       4.51388889       4.51388889       4.51388889       4.51388889       4.51388889       4.51388889       4.51388889       4.51388889       4.51388889       4.51388889       4.51388889       4.51388889       4.51388889       4.51388889       4.51388889       4.51388889       4.51388889       4.51388889       4.51388889       4.51388889       4.51388889       4.51388889       4.51388889       4.51388889       4.51388889       4.51388889       4.51388889       4.51388889       4.51388889       4.51388889       4.51388889       4.51388889       4.51388889       4.51388889       4.51388889       4.51388889       4.51388889       4.51388889       4.51388889       4.51388889       4.51388889       4.51388889       4.51388889       4.51388889       4.51388889
    INTERNAL  FACTOR  1.0
           4.51388889       4.51388889       4.51388889       4.51388889       4.51388889       4.51388889       4.51388889       4.51388889       4.51388889       4.51388889       4.51388889       4.51388889       4.51388889       4.51388889       4.51388889       4.51388889       4.51388889       4.51388889       4.51388889       4.51388889       4.51388889       4.51388889       4.51388889       4.51388889       4.51388889       4.51388889       4.51388889       4.51388889       4.51388889       4.51388889       4.51388889       4.51388889       4.51388889       4.51388889       4.51388889       4.51388889       4.51388889       4.51388889       4.51388889       4.51388889       4.51388889       4.51388889       4.51388889       4.51388889       4.51388889       4.51388889       4.51388889       4.51388889       4.51388889       4.51388889       4.51388889       4.51388889       4.51388889       4.51388889       4.51388889       4.51388889       4.51388889       4.51388889       4.51388889       4.51388889       4.51388889       4.51388889       4.51388889       4.51388889       4.51388889
    INTERNAL  FACTOR  1.0
           4.51388889       4.51388889       4.51388889       4.51388889       4.51388889       4.51388889       4.51388889       4.51388889       4.51388889       4.51388889       4.51388889       4.51388889       4.51388889       4.51388889       4.51388889       4.51388889       4.51388889       4.51388889       4.51388889       4.51388889       4.51388889       4.51388889       4.51388889       4.51388889       4.51388889       4.51388889       4.51388889       4.51388889       4.51388889       4.51388889       4.51388889       4.51388889       4.51388889       4.51388889       4.51388889       4.51388889       4.51388889       4.51388889       4.51388889       4.51388889       4.51388889       4.51388889       4.51388889       4.51388889       4.51388889       4.51388889       4.51388889       4.51388889       4.51388889       4.51388889       4.51388889       4.51388889       4.51388889       4.51388889       4.51388889       4.51388889       4.51388889       4.51388889       4.51388889       4.51388889       4.51388889       4.51388889       4.51388889       4.51388889       4.51388889
    INTERNAL  FACTOR  1.0
           4.51388889       4.51388889       4.51388889       4.51388889       4.51388889       4.51388889       4.51388889       4.51388889       4.51388889       4.51388889       4.51388889       4.51388889       4.51388889       4.51388889       4.51388889       4.51388889       4.51388889       4.51388889       4.51388889       4.51388889       4.51388889       4.51388889       4.51388889       4.51388889       4.51388889       4.51388889       4.51388889       4.51388889       4.51388889       4.51388889       4.51388889       4.51388889       4.51388889       4.51388889       4.51388889       4.51388889       4.51388889       4.51388889       4.51388889       4.51388889       4.51388889       4.51388889       4.51388889       4.51388889       4.51388889       4.51388889       4.51388889       4.51388889       4.51388889       4.51388889       4.51388889       4.51388889       4.51388889       4.51388889       4.51388889       4.51388889       4.51388889       4.51388889       4.51388889       4.51388889       4.51388889       4.51388889       4.51388889       4.51388889       4.51388889
    INTERNAL  FACTOR  1.0
           4.51388889       4.51388889       4.51388889       4.51388889       4.51388889       4.51388889       4.51388889       4.51388889       4.51388889       4.51388889       4.51388889       4.51388889       4.51388889       4.51388889       4.51388889       4.51388889       4.51388889       4.51388889       4.51388889       4.51388889       4.51388889       4.51388889       4.51388889       4.51388889       4.51388889       4.51388889       4.51388889       4.51388889       4.51388889       4.51388889       4.51388889       4.51388889       4.51388889       4.51388889       4.51388889       4.51388889       4.51388889       4.51388889       4.51388889       4.51388889       4.51388889       4.51388889       4.51388889       4.51388889       4.51388889       4.51388889       4.51388889       4.51388889       4.51388889       4.51388889       4.51388889       4.51388889       4.51388889       4.51388889       4.51388889       4.51388889       4.51388889       4.51388889       4.51388889       4.51388889       4.51388889       4.51388889       4.51388889       4.51388889       4.51388889
    INTERNAL  FACTOR  1.0
          45.13888889      45.13888889      45.13888889      45.13888889      45.13888889      45.13888889      45.13888889      45.13888889      45.13888889      45.13888889      45.13888889      45.13888889      45.13888889      45.13888889      45.13888889      45.13888889      45.13888889      45.13888889      45.13888889      45.13888889      45.13888889      45.13888889      45.13888889      45.13888889      45.13888889      45.13888889      45.13888889      45.13888889      45.13888889      45.13888889      45.13888889      45.13888889      45.13888889      45.13888889      45.13888889      45.13888889      45.13888889      45.13888889      45.13888889      45.13888889      45.13888889      45.13888889      45.13888889      45.13888889      45.13888889      45.13888889      45.13888889      45.13888889      45.13888889      45.13888889      45.13888889      45.13888889      45.13888889      45.13888889      45.13888889      45.13888889      45.13888889      45.13888889      45.13888889      45.13888889      45.13888889      45.13888889      45.13888889      45.13888889      45.13888889
    INTERNAL  FACTOR  1.0
          45.13888889      45.13888889      45.13888889      45.13888889      45.13888889      45.13888889      45.13888889      45.13888889      45.13888889      45.13888889      45.13888889      45.13888889      45.13888889      45.13888889      45.13888889      45.13888889      45.13888889      45.13888889      45.13888889      45.13888889      45.13888889      45.13888889      45.13888889      45.13888889      45.13888889      45.13888889      45.13888889      45.13888889      45.13888889      45.13888889      45.13888889      45.13888889      45.13888889      45.13888889      45.13888889      45.13888889      45.13888889      45.13888889      45.13888889      45.13888889      45.13888889      45.13888889      45.13888889      45.13888889      45.13888889      45.13888889      45.13888889      45.13888889      45.13888889      45.13888889      45.13888889      45.13888889      45.13888889      45.13888889      45.13888889      45.13888889      45.13888889      45.13888889      45.13888889      45.13888889      45.13888889      45.13888889      45.13888889      45.13888889      45.13888889
    INTERNAL  FACTOR  1.0
          45.13888889      45.13888889      45.13888889      45.13888889      45.13888889      45.13888889      45.13888889      45.13888889      45.13888889      45.13888889      45.13888889      45.13888889      45.13888889      45.13888889      45.13888889      45.13888889      45.13888889      45.13888889      45.13888889      45.13888889      45.13888889      45.13888889      45.13888889      45.13888889      45.13888889      45.13888889      45.13888889      45.13888889      45.13888889      45.13888889      45.13888889      45.13888889      45.13888889      45.13888889      45.13888889      45.13888889      45.13888889      45.13888889      45.13888889      45.13888889      45.13888889      45.13888889      45.13888889      45.13888889      45.13888889      45.13888889      45.13888889      45.13888889      45.13888889      45.13888889      45.13888889      45.13888889      45.13888889      45.13888889      45.13888889      45.13888889      45.13888889      45.13888889      45.13888889      45.13888889      45.13888889      45.13888889      45.13888889      45.13888889      45.13888889
    INTERNAL  FACTOR  1.0
          45.13888889      45.13888889      45.13888889      45.13888889      45.13888889      45.13888889      45.13888889      45.13888889      45.13888889      45.13888889      45.13888889      45.13888889      45.13888889      45.13888889      45.13888889      45.13888889      45.13888889      45.13888889      45.13888889      45.13888889      45.13888889      45.13888889      45.13888889      45.13888889      45.13888889      45.13888889      45.13888889      45.13888889      45.13888889      45.13888889      45.13888889      45.13888889      45.13888889      45.13888889      45.13888889      45.13888889      45.13888889      45.13888889      45.13888889      45.13888889      45.13888889      45.13888889      45.13888889      45.13888889      45.13888889      45.13888889      45.13888889      45.13888889      45.13888889      45.13888889      45.13888889      45.13888889      45.13888889      45.13888889      45.13888889      45.13888889      45.13888889      45.13888889      45.13888889      45.13888889      45.13888889      45.13888889      45.13888889      45.13888889      45.13888889
    INTERNAL  FACTOR  1.0
          45.13888889      45.13888889      45.13888889      45.13888889      45.13888889      45.13888889      45.13888889      45.13888889      45.13888889      45.13888889      45.13888889      45.13888889      45.13888889      45.13888889      45.13888889      45.13888889      45.13888889      45.13888889      45.13888889      45.13888889      45.13888889      45.13888889      45.13888889      45.13888889      45.13888889      45.13888889      45.13888889      45.13888889      45.13888889      45.13888889      45.13888889      45.13888889      45.13888889      45.13888889      45.13888889      45.13888889      45.13888889      45.13888889      45.13888889      45.13888889      45.13888889      45.13888889      45.13888889      45.13888889      45.13888889      45.13888889      45.13888889      45.13888889      45.13888889      45.13888889      45.13888889      45.13888889      45.13888889      45.13888889      45.13888889      45.13888889      45.13888889      45.13888889      45.13888889      45.13888889      45.13888889      45.13888889      45.13888889      45.13888889      45.13888889
    INTERNAL  FACTOR  1.0
          45.13888889      45.13888889      45.13888889      45.13888889      45.13888889      45.13888889      45.13888889      45.13888889      45.13888889      45.13888889      45.13888889      45.13888889      45.13888889      45.13888889      45.13888889      45.13888889      45.13888889      45.13888889      45.13888889      45.13888889      45.13888889      45.13888889      45.13888889      45.13888889      45.13888889      45.13888889      45.13888889      45.13888889      45.13888889      45.13888889      45.13888889      45.13888889      45.13888889      45.13888889      45.13888889      45.13888889      45.13888889      45.13888889      45.13888889      45.13888889      45.13888889      45.13888889      45.13888889      45.13888889      45.13888889      45.13888889      45.13888889      45.13888889      45.13888889      45.13888889      45.13888889      45.13888889      45.13888889      45.13888889      45.13888889      45.13888889      45.13888889      45.13888889      45.13888889      45.13888889      45.13888889      45.13888889      45.13888889      45.13888889      45.13888889
    INTERNAL  FACTOR  1.0
          45.13888889      45.13888889      45.13888889      45.13888889      45.13888889      45.13888889      45.13888889      45.13888889      45.13888889      45.13888889      45.13888889      45.13888889      45.13888889      45.13888889      45.13888889      45.13888889      45.13888889      45.13888889      45.13888889      45.13888889      45.13888889      45.13888889      45.13888889      45.13888889      45.13888889      45.13888889      45.13888889      45.13888889      45.13888889      45.13888889      45.13888889      45.13888889      45.13888889      45.13888889      45.13888889      45.13888889      45.13888889      45.13888889      45.13888889      45.13888889      45.13888889      45.13888889      45.13888889      45.13888889      45.13888889      45.13888889      45.13888889      45.13888889      45.13888889      45.13888889      45.13888889      45.13888889      45.13888889      45.13888889      45.13888889      45.13888889      45.13888889      45.13888889      45.13888889      45.13888889      45.13888889      45.13888889      45.13888889      45.13888889      45.13888889
    INTERNAL  FACTOR  1.0
          45.13888889      45.13888889      45.13888889      45.13888889      45.13888889      45.13888889      45.13888889      45.13888889      45.13888889      45.13888889      45.13888889      45.13888889      45.13888889      45.13888889      45.13888889      45.13888889      45.13888889      45.13888889      45.13888889      45.13888889      45.13888889      45.13888889      45.13888889      45.13888889      45.13888889      45.13888889      45.13888889      45.13888889      45.13888889      45.13888889      45.13888889      45.13888889      45.13888889      45.13888889      45.13888889      45.13888889      45.13888889      45.13888889      45.13888889      45.13888889      45.13888889      45.13888889      45.13888889      45.13888889      45.13888889      45.13888889      45.13888889      45.13888889      45.13888889      45.13888889      45.13888889      45.13888889      45.13888889      45.13888889      45.13888889      45.13888889      45.13888889      45.13888889      45.13888889      45.13888889      45.13888889      45.13888889      45.13888889      45.13888889      45.13888889
    INTERNAL  FACTOR  1.0
          45.13888889      45.13888889      45.13888889      45.13888889      45.13888889      45.13888889      45.13888889      45.13888889      45.13888889      45.13888889      45.13888889      45.13888889      45.13888889      45.13888889      45.13888889      45.13888889      45.13888889      45.13888889      45.13888889      45.13888889      45.13888889      45.13888889      45.13888889      45.13888889      45.13888889      45.13888889      45.13888889      45.13888889      45.13888889      45.13888889      45.13888889      45.13888889      45.13888889      45.13888889      45.13888889      45.13888889      45.13888889      45.13888889      45.13888889      45.13888889      45.13888889      45.13888889      45.13888889      45.13888889      45.13888889      45.13888889      45.13888889      45.13888889      45.13888889      45.13888889      45.13888889      45.13888889      45.13888889      45.13888889      45.13888889      45.13888889      45.13888889      45.13888889      45.13888889      45.13888889      45.13888889      45.13888889      45.13888889      45.13888889      45.13888889
    INTERNAL  FACTOR  1.0
          45.13888889      45.13888889      45.13888889      45.13888889      45.13888889      45.13888889      45.13888889      45.13888889      45.13888889      45.13888889      45.13888889      45.13888889      45.13888889      45.13888889      45.13888889      45.13888889      45.13888889      45.13888889      45.13888889      45.13888889      45.13888889      45.13888889      45.13888889      45.13888889      45.13888889      45.13888889      45.13888889      45.13888889      45.13888889      45.13888889      45.13888889      45.13888889      45.13888889      45.13888889      45.13888889      45.13888889      45.13888889      45.13888889      45.13888889      45.13888889      45.13888889      45.13888889      45.13888889      45.13888889      45.13888889      45.13888889      45.13888889      45.13888889      45.13888889      45.13888889      45.13888889      45.13888889      45.13888889      45.13888889      45.13888889      45.13888889      45.13888889      45.13888889      45.13888889      45.13888889      45.13888889      45.13888889      45.13888889      45.13888889      45.13888889
    INTERNAL  FACTOR  1.0
          45.13888889      45.13888889      45.13888889      45.13888889      45.13888889      45.13888889      45.13888889      45.13888889      45.13888889      45.13888889      45.13888889      45.13888889      45.13888889      45.13888889      45.13888889      45.13888889      45.13888889      45.13888889      45.13888889      45.13888889      45.13888889      45.13888889      45.13888889      45.13888889      45.13888889      45.13888889      45.13888889      45.13888889      45.13888889      45.13888889      45.13888889      45.13888889      45.13888889      45.13888889      45.13888889      45.13888889      45.13888889      45.13888889      45.13888889      45.13888889      45.13888889      45.13888889      45.13888889      45.13888889      45.13888889      45.13888889      45.13888889      45.13888889      45.13888889      45.13888889      45.13888889      45.13888889      45.13888889      45.13888889      45.13888889      45.13888889      45.13888889      45.13888889      45.13888889      45.13888889      45.13888889      45.13888889      45.13888889      45.13888889      45.13888889
    INTERNAL  FACTOR  1.0
          45.13888889      45.13888889      45.13888889      45.13888889      45.13888889      45.13888889      45.13888889      45.13888889      45.13888889      45.13888889      45.13888889      45.13888889      45.13888889      45.13888889      45.13888889      45.13888889      45.13888889      45.13888889      45.13888889      45.13888889      45.13888889      45.13888889      45.13888889      45.13888889      45.13888889      45.13888889      45.13888889      45.13888889      45.13888889      45.13888889      45.13888889      45.13888889      45.13888889      45.13888889      45.13888889      45.13888889      45.13888889      45.13888889      45.13888889      45.13888889      45.13888889      45.13888889      45.13888889      45.13888889      45.13888889      45.13888889      45.13888889      45.13888889      45.13888889      45.13888889      45.13888889      45.13888889      45.13888889      45.13888889      45.13888889      45.13888889      45.13888889      45.13888889      45.13888889      45.13888889      45.13888889      45.13888889      45.13888889      45.13888889      45.13888889
    INTERNAL  FACTOR  1.0