# File generated by Flopy version 3.4.3 on 12/05/2023 at 20:56:26.
BEGIN griddata
  strt  LAYERED
    INTERNAL  FACTOR  1.0
          45.45000000      45.45000000      45.45000000      45.45000000      45.45000000      45.45000000      45.45000000      45.45000000      45.45000000      45.45000000      45.45000000      45.45000000      45.45000000      45.45000000      45.45000000      45.45000000      45.45000000      45.45000000      45.45000000      45.45000000      45.45000000      45.45000000      45.45000000      45.45000000      45.45000000      45.45000000      45.45000000      45.45000000      45.45000000      45.45000000      45.45000000      45.45000000      45.45000000      45.45000000      45.45000000      45.45000000      45.45000000      45.45000000      45.45000000      45.45000000      45.45000000      45.45000000      45.45000000      45.45000000      45.45000000      45.45000000      45.45000000      45.45000000      45.45000000      45.45000000      45.45000000      45.45000000      45.45000000      45.45000000      45.45000000      45.45000000      45.45000000      45.45000000      45.45000000      45.45000000      45.45000000      45.45000000      45.45000000      45.45000000      45.45000000
    INTERNAL  FACTOR  1.0
          45.45000000      45.45000000      45.45000000      45.45000000      45.45000000      45.45000000      45.45000000      45.45000000      45.45000000      45.45000000      45.45000000      45.45000000      45.45000000      45.45000000      45.45000000      45.45000000      45.45000000      45.45000000      45.45000000      45.45000000      45.45000000      45.45000000      45.45000000      45.45000000      45.45000000      45.45000000      45.45000000      45.45000000      45.45000000      45.45000000      45.45000000      45.45000000      45.45000000      45.45000000      45.45000000      45.45000000      45.45000000      45.45000000      45.45000000      45.45000000      45.45000000      45.45000000      45.45000000      45.45000000      45.45000000      45.45000000      45.45000000      45.45000000      45.45000000      45.45000000      45.45000000      45.45000000      45.45000000      45.45000000      45.45000000      45.45000000      45.45000000      45.45000000      45.45000000      45.45000000      45.45000000      45.45000000      45.45000000      45.45000000      45.45000000
    INTERNAL  FACTOR  1.0
          45.45000000      45.45000000      45.45000000      45.45000000      45.45000000      45.45000000      45.45000000      45.45000000      45.45000000      45.45000000      45.45000000      45.45000000      45.45000000      45.45000000      45.45000000      45.45000000      45.45000000      45.45000000      45.45000000      45.45000000      45.45000000      45.45000000      45.45000000      45.45000000      45.45000000      45.45000000      45.45000000      45.45000000      45.45000000      45.45000000      45.45000000      45.45000000      45.45000000      45.45000000      45.45000000      45.45000000      45.45000000      45.45000000      45.45000000      45.45000000      45.45000000      45.45000000      45.45000000      45.45000000      45.45000000      45.45000000      45.45000000      45.45000000      45.45000000      45.45000000      45.45000000      45.45000000      45.45000000      45.45000000      45.45000000      45.45000000      45.45000000      45.45000000      45.45000000      45.45000000      45.45000000      45.45000000      45.45000000      45.45000000      45.45000000
    INTERNAL  FACTOR  1.0
          45.45000000      45.45000000      45.45000000      45.45000000      45.45000000      45.45000000      45.45000000      45.45000000      45.45000000      45.45000000      45.45000000      45.45000000      45.45000000      45.45000000      45.45000000      45.45000000      45.45000000      45.45000000      45.45000000      45.45000000      45.45000000      45.45000000      45.45000000      45.45000000      45.45000000      45.45000000      45.45000000      45.45000000      45.45000000      45.45000000      45.45000000      45.45000000      45.45000000      45.45000000      45.45000000      45.45000000      45.45000000      45.45000000      45.45000000      45.45000000      45.45000000      45.45000000      45.45000000      45.45000000      45.45000000      45.45000000      45.45000000      45.45000000      45.45000000      45.45000000      45.45000000      45.45000000      45.45000000      45.45000000      45.45000000      45.45000000      45.45000000      45.45000000      45.45000000      45.45000000      45.45000000      45.45000000      45.45000000      45.45000000      45.45000000
    INTERNAL  FACTOR  1.0
          45.45000000      45.45000000      45.45000000      45.45000000      45.45000000      45.45000000      45.45000000      45.45000000      45.45000000      45.45000000      45.45000000      45.45000000      45.45000000      45.45000000      45.45000000      45.45000000      45.45000000      45.45000000      45.45000000      45.45000000      45.45000000      45.45000000      45.45000000      45.45000000      45.45000000      45.45000000      45.45000000      45.45000000      45.45000000      45.45000000      45.45000000      45.45000000      45.45000000      45.45000000      45.45000000      45.45000000      45.45000000      45.45000000      45.45000000      45.45000000      45.45000000      45.45000000      45.45000000      45.45000000      45.45000000      45.45000000      45.45000000      45.45000000      45.45000000      45.45000000      45.45000000      45.45000000      45.45000000      45.45000000      45.45000000      45.45000000      45.45000000      45.45000000      45.45000000      45.45000000      45.45000000      45.45000000      45.45000000      45.45000000      45.45000000
    INTERNAL  FACTOR  1.0
          45.45000000      45.45000000      45.45000000      45.45000000      45.45000000      45.45000000      45.45000000      45.45000000      45.45000000      45.45000000      45.45000000      45.45000000      45.45000000      45.45000000      45.45000000      45.45000000      45.45000000      45.45000000      45.45000000      45.45000000      45.45000000      45.45000000      45.45000000      45.45000000      45.45000000      45.45000000      45.45000000      45.45000000      45.45000000      45.45000000      45.45000000      45.45000000      45.45000000      45.45000000      45.45000000      45.45000000      45.45000000      45.45000000      45.45000000      45.45000000      45.45000000      45.45000000      45.45000000      45.45000000      45.45000000      45.45000000      45.45000000      45.45000000      45.45000000      45.45000000      45.45000000      45.45000000      45.45000000      45.45000000      45.45000000      45.45000000      45.45000000      45.45000000      45.45000000      45.45000000      45.45000000      45.45000000      45.45000000      45.45000000      45.45000000
    INTERNAL  FACTOR  1.0
          45.45000000      45.45000000      45.45000000      45.45000000      45.45000000      45.45000000      45.45000000      45.45000000      45.45000000      45.45000000      45.45000000      45.45000000      45.45000000      45.45000000      45.45000000      45.45000000      45.45000000      45.45000000      45.45000000      45.45000000      45.45000000      45.45000000      45.45000000      45.45000000      45.45000000      45.45000000      45.45000000      45.45000000      45.45000000      45.45000000      45.45000000      45.45000000      45.45000000      45.45000000      45.45000000      45.45000000      45.45000000      45.45000000      45.45000000      45.45000000      45.45000000      45.45000000      45.45000000      45.45000000      45.45000000      45.45000000      45.45000000      45.45000000      45.45000000      45.45000000      45.45000000      45.45000000      45.45000000      45.45000000      45.45000000      45.45000000      45.45000000      45.45000000      45.45000000      45.45000000      45.45000000      45.45000000      45.45000000      45.45000000      45.45000000
    INTERNAL  FACTOR  1.0
          45.45000000      45.45000000      45.45000000      45.45000000      45.45000000      45.45000000      45.45000000      45.45000000      45.45000000      45.45000000      45.45000000      45.45000000      45.45000000      45.45000000      45.45000000      45.45000000      45.45000000      45.45000000      45.45000000      45.45000000      45.45000000      45.45000000      45.45000000      45.45000000      45.45000000      45.45000000      45.45000000      45.45000000      45.45000000      45.45000000      45.45000000      45.45000000      45.45000000      45.45000000      45.45000000      45.45000000      45.45000000      45.45000000      45.45000000      45.45000000      45.45000000      45.45000000      45.45000000      45.45000000      45.45000000      45.45000000      45.45000000      45.45000000      45.45000000      45.45000000      45.45000000      45.45000000      45.45000000      45.45000000      45.45000000      45.45000000      45.45000000      45.45000000      45.45000000      45.45000000      45.45000000      45.45000000      45.45000000      45.45000000      45.45000000
    INTERNAL  FACTOR  1.0
          45.45000000      45.45000000      45.45000000      45.45000000      45.45000000      45.45000000      45.45000000      45.45000000      45.45000000      45.45000000      45.45000000      45.45000000      45.45000000      45.45000000      45.45000000      45.45000000      45.45000000      45.45000000      45.45000000      45.45000000      45.45000000      45.45000000      45.45000000      45.45000000      45.45000000      45.45000000      45.45000000      45.45000000      45.45000000      45.45000000      45.45000000      45.45000000      45.45000000      45.45000000      45.45000000      45.45000000      45.45000000      45.45000000      45.45000000      45.45000000      45.45000000      45.45000000      45.45000000      45.45000000      45.45000000      45.45000000      45.45000000      45.45000000      45.45000000      45.45000000      45.45000000      45.45000000      45.45000000      45.45000000      45.45000000      45.45000000      45.45000000      45.45000000      45.45000000      45.45000000      45.45000000      45.45000000      45.45000000      45.45000000      45.45000000
    INTERNAL  FACTOR  1.0
          45.45000000      45.45000000      45.45000000      45.45000000      45.45000000      45.45000000      45.45000000      45.45000000      45.45000000      45.45000000      45.45000000      45.45000000      45.45000000      45.45000000      45.45000000      45.45000000      45.45000000      45.45000000      45.45000000      45.45000000      45.45000000      45.45000000      45.45000000      45.45000000      45.45000000      45.45000000      45.45000000      45.45000000      45.45000000      45.45000000      45.45000000      45.45000000      45.45000000      45.45000000      45.45000000      45.45000000      45.45000000      45.45000000      45.45000000      45.45000000      45.45000000      45.45000000      45.45000000      45.45000000      45.45000000      45.45000000      45.45000000      45.45000000      45.45000000      45.45000000      45.45000000      45.45000000      45.45000000      45.45000000      45.45000000      45.45000000      45.45000000      45.45000000      45.45000000      45.45000000      45.45000000      45.45000000      45.45000000      45.45000000      45.45000000
    INTERNAL  FACTOR  1.0
          45.45000000      45.45000000      45.45000000      45.45000000      45.45000000      45.45000000      45.45000000      45.45000000      45.45000000      45.45000000      45.45000000      45.45000000      45.45000000      45.45000000      45.45000000      45.45000000      45.45000000      45.45000000      45.45000000      45.45000000      45.45000000      45.45000000      45.45000000      45.45000000      45.45000000      45.45000000      45.45000000      45.45000000      45.45000000      45.45000000      45.45000000      45.45000000      45.45000000      45.45000000      45.45000000      45.45000000      45.45000000      45.45000000      45.45000000      45.45000000      45.45000000      45.45000000      45.45000000      45.45000000      45.45000000      45.45000000      45.45000000      45.45000000      45.45000000      45.45000000      45.45000000      45.45000000      45.45000000      45.45000000      45.45000000      45.45000000      45.45000000      45.45000000      45.45000000      45.45000000      45.45000000      45.45000000      45.45000000      45.45000000      45.45000000
    INTERNAL  FACTOR  1.0
          45.45000000      45.45000000      45.45000000      45.45000000      45.45000000      45.45000000      45.45000000      45.45000000      45.45000000      45.45000000      45.45000000      45.45000000      45.45000000      45.45000000      45.45000000      45.45000000      45.45000000      45.45000000      45.45000000      45.45000000      45.45000000      45.45000000      45.45000000      45.45000000      45.45000000      45.45000000      45.45000000      45.45000000      45.45000000      45.45000000      45.45000000      45.45000000      45.45000000      45.45000000      45.45000000      45.45000000      45.45000000      45.45000000      45.45000000      45.45000000      45.45000000      45.45000000      45.45000000      45.45000000      45.45000000      45.45000000      45.45000000      45.45000000      45.45000000      45.45000000      45.45000000      45.45000000      45.45000000      45.45000000      45.45000000      45.45000000      45.45000000      45.45000000      45.45000000      45.45000000      45.45000000      45.45000000      45.45000000      45.45000000      45.45000000
    INTERNAL  FACTOR  1.0
          45.45000000      45.45000000      45.45000000      45.45000000      45.45000000      45.45000000      45.45000000      45.45000000      45.45000000      45.45000000      45.45000000      45.45000000      45.45000000      45.45000000      45.45000000      45.45000000      45.45000000      45.45000000      45.45000000      45.45000000      45.45000000      45.45000000      45.45000000      45.45000000      45.45000000      45.45000000      45.45000000      45.45000000      45.45000000      45.45000000      45.45000000      45.45000000      45.45000000      45.45000000      45.45000000      45.45000000      45.45000000      45.45000000      45.45000000      45.45000000      45.45000000      45.45000000      45.45000000      45.45000000      45.45000000      45.45000000      45.45000000      45.45000000      45.45000000      45.45000000      45.45000000      45.45000000      45.45000000      45.45000000      45.45000000      45.45000000      45.45000000      45.45000000      45.45000000      45.45000000      45.45000000      45.45000000      45.45000000      45.45000000      45.45000000
    INTERNAL  FACTOR  1.0
          45.45000000      45.45000000      45.45000000      45.45000000      45.45000000      45.45000000      45.45000000      45.45000000      45.45000000      45.45000000      45.45000000      45.45000000      45.45000000      45.45000000      45.45000000      45.45000000      45.45000000      45.45000000      45.45000000      45.45000000      45.45000000      45.45000000      45.45000000      45.45000000      45.45000000      45.45000000      45.45000000      45.45000000      45.45000000      45.45000000      45.45000000      45.45000000      45.45000000      45.45000000      45.45000000      45.45000000      45.45000000      45.45000000      45.45000000      45.45000000      45.45000000      45.45000000      45.45000000      45.45000000      45.45000000      45.45000000      45.45000000      45.45000000      45.45000000      45.45000000      45.45000000      45.45000000      45.45000000      45.45000000      45.45000000      45.45000000      45.45000000      45.45000000      45.45000000      45.45000000      45.45000000      45.45000000      45.45000000      45.45000000      45.45000000
    INTERNAL  FACTOR  1.0
          45.45000000      45.45000000      45.45000000      45.45000000      45.45000000      45.45000000      45.45000000      45.45000000      45.45000000      45.45000000      45.45000000      45.45000000      45.45000000      45.45000000      45.45000000      45.45000000      45.45000000      45.45000000      45.45000000      45.45000000      45.45000000      45.45000000      45.45000000      45.45000000      45.45000000      45.45000000      45.45000000      45.45000000      45.45000000      45.45000000      45.45000000      45.45000000      45.45000000      45.45000000      45.45000000      45.45000000      45.45000000      45.45000000      45.45000000      45.45000000      45.45000000      45.45000000      45.45000000      45.45000000      45.45000000      45.45000000      45.45000000      45.45000000      45.45000000      45.45000000      45.45000000      45.45000000      45.45000000      45.45000000      45.45000000      45.45000000      45.45000000      45.45000000      45.45000000      45.45000000      45.45000000      45.45000000      45.45000000      45.45000000      45.45000000
    INTERNAL  FACTOR  1.0
          45.45000000      45.45000000      45.45000000      45.45000000      45.45000000      45.45000000      45.45000000      45.45000000      45.45000000      45.45000000      45.45000000      45.45000000      45.45000000      45.45000000      45.45000000      45.45000000      45.45000000      45.45000000      45.45000000      45.45000000      45.45000000      45.45000000      45.45000000      45.45000000      45.45000000      45.45000000      45.45000000      45.45000000      45.45000000      45.45000000      45.45000000      45.45000000      45.45000000      45.45000000      45.45000000      45.45000000      45.45000000      45.45000000      45.45000000      45.45000000      45.45000000      45.45000000      45.45000000      45.45000000      45.45000000      45.45000000      45.45000000      45.45000000      45.45000000      45.45000000      45.45000000      45.45000000      45.45000000      45.45000000      45.45000000      45.45000000      45.45000000      45.45000000      45.45000000      45.45000000      45.45000000      45.45000000      45.45000000      45.45000000      45.45000000
    INTERNAL  FACTOR  1.0
          45.45000000      45.45000000      45.45000000      45.45000000      45.45000000      45.45000000      45.45000000      45.45000000      45.45000000      45.45000000      45.45000000      45.45000000      45.45000000      45.45000000      45.45000000      45.45000000      45.45000000      45.45000000      45.45000000      45.45000000      45.45000000      45.45000000      45.45000000      45.45000000      45.45000000      45.45000000      45.45000000      45.45000000      45.45000000      45.45000000      45.45000000      45.45000000      45.45000000      45.45000000      45.45000000      45.45000000      45.45000000      45.45000000      45.45000000      45.45000000      45.45000000      45.45000000      45.45000000      45.45000000      45.45000000      45.45000000      45.45000000      45.45000000      45.45000000      45.45000000      45.45000000      45.45000000      45.45000000      45.45000000      45.45000000      45.45000000      45.45000000      45.45000000      45.45000000      45.45000000      45.45000000      45.45000000      45.45000000      45.45000000      45.45000000
    INTERNAL  FACTOR  1.0
          45.45000000      45.45000000      45.45000000      45.45000000      45.45000000      45.45000000      45.45000000      45.45000000      45.45000000      45.45000000      45.45000000      45.45000000      45.45000000      45.45000000      45.45000000      45.45000000      45.45000000      45.45000000      45.45000000      45.45000000      45.45000000      45.45000000      45.45000000      45.45000000      45.45000000      45.45000000      45.45000000      45.45000000      45.45000000      45.45000000      45.45000000      45.45000000      45.45000000      45.45000000      45.45000000      45.45000000      45.45000000      45.45000000      45.45000000      45.45000000      45.45000000      45.45000000      45.45000000      45.45000000      45.45000000      45.45000000      45.45000000      45.45000000      45.45000000      45.45000000      45.45000000      45.45000000      45.45000000      45.45000000      45.45000000      45.45000000      45.45000000      45.45000000      45.45000000      45.45000000      45.45000000      45.45000000      45.45000000      45.45000000      45.45000000
    INTERNAL  FACTOR  1.0
          45.45000000      45.45000000      45.45000000      45.45000000      45.45000000      45.45000000      45.45000000      45.45000000      45.45000000      45.45000000      45.45000000      45.45000000      45.45000000      45.45000000      45.45000000      45.45000000      45.45000000      45.45000000      45.45000000      45.45000000      45.45000000      45.45000000      45.45000000      45.45000000      45.45000000      45.45000000      45.45000000      45.45000000      45.45000000      45.45000000      45.45000000      45.45000000      45.45000000      45.45000000      45.45000000      45.45000000      45.45000000      45.45000000      45.45000000      45.45000000      45.45000000      45.45000000      45.45000000      45.45000000      45.45000000      45.45000000      45.45000000      45.45000000      45.45000000      45.45000000      45.45000000      45.45000000      45.45000000      45.45000000      45.45000000      45.45000000      45.45000000      45.45000000      45.45000000      45.45000000      45.45000000      45.45000000      45.45000000      45.45000000      45.45000000
    INTERNAL  FACTOR  1.0
          45.45000000      45.45000000      45.45000000      45.45000000      45.45000000      45.45000000      45.45000000      45.45000000      45.45000000      45.45000000      45.45000000      45.45000000      45.45000000      45.45000000      45.45000000      45.45000000      45.45000000      45.45000000      45.45000000      45.45000000      45.45000000      45.45000000      45.45000000      45.45000000      45.45000000      45.45000000      45.45000000      45.45000000      45.45000000      45.45000000      45.45000000      45.45000000      45.45000000      45.45000000      45.45000000      45.45000000      45.45000000      45.45000000      45.45000000      45.45000000      45.45000000      45.45000000      45.45000000      45.45000000      45.45000000      45.45000000      45.45000000      45.45000000      45.45000000      45.45000000      45.45000000      45.45000000      45.45000000      45.45000000      45.45000000      45.45000000      45.45000000      45.45000000      45.45000000      45.45000000      45.45000000      45.45000000      45.70000000      45.70000000      45.70000000
    INTERNAL  FACTOR  1.0
          45.20000000      45.20000000      45.20000000      45.20000000      45.20000000      45.20000000      45.45000000      45.45000000      45.45000000      45.45000000      45.45000000      45.45000000      45.45000000      45.45000000      45.45000000      45.45000000      45.45000000      45.45000000      45.45000000      45.45000000      45.45000000      45.45000000      45.45000000      45.45000000      45.45000000      45.45000000      45.45000000      45.45000000      45.45000000      45.45000000      45.45000000      45.45000000      45.45000000      45.45000000      45.45000000      45.45000000      45.45000000      45.45000000      45.45000000      45.45000000      45.45000000      45.45000000      45.45000000      45.45000000      45.45000000      45.45000000      45.45000000      45.45000000      45.45000000      45.45000000      45.45000000      45.45000000      45.45000000      45.45000000      45.45000000      45.45000000      45.45000000      45.45000000      45.45000000      45.45000000      45.45000000      45.45000000      45.45000000      45.45000000      45.45000000
    INTERNAL  FACTOR  1.0
          45.20000000      45.20000000      45.20000000      45.20000000      45.20000000      45.20000000      45.45000000      45.45000000      45.45000000      45.45000000      45.45000000      45.45000000      45.45000000      45.45000000      45.45000000      45.45000000      45.45000000      45.45000000      45.45000000      45.45000000      45.45000000      45.45000000      45.45000000      45.45000000      45.45000000      45.45000000      45.45000000      45.45000000      45.45000000      45.45000000      45.45000000      45.45000000      45.45000000      45.45000000      45.45000000      45.45000000      45.45000000      45.45000000      45.45000000      45.45000000      45.45000000      45.45000000      45.45000000      45.45000000      45.45000000      45.45000000      45.45000000      45.45000000      45.45000000      45.45000000      45.45000000      45.45000000      45.45000000      45.45000000      45.45000000      45.45000000      45.45000000      45.45000000      45.45000000      45.45000000      45.45000000      45.45000000      45.45000000      45.45000000      45.45000000
    INTERNAL  FACTOR  1.0
          45.20000000      45.20000000      45.20000000      45.20000000      45.20000000      45.45000000      45.45000000      45.45000000      45.45000000      45.45000000      45.45000000      45.45000000      45.45000000      45.45000000      45.45000000      45.45000000      45.45000000      45.45000000      45.45000000      45.45000000      45.45000000      45.45000000      45.45000000      45.45000000      45.45000000      45.45000000      45.45000000      45.45000000      45.45000000      45.45000000      45.45000000      45.45000000      45.45000000      45.45000000      45.45000000      45.45000000      45.45000000      45.45000000      45.45000000      45.45000000      45.45000000      45.45000000      45.45000000      45.45000000      45.45000000      45.45000000      45.45000000      45.45000000      45.45000000      45.45000000      45.45000000      45.45000000      45.45000000      45.45000000      45.45000000      45.45000000      45.45000000      45.45000000      45.45000000      45.45000000      45.45000000      45.45000000      45.45000000      45.45000000      45.45000000
    INTERNAL  FACTOR  1.0
          45.45000000      45.20000000      45.20000000      45.20000000      45.20000000      45.45000000      45.45000000      45.45000000      45.45000000      45.45000000      45.45000000      45.45000000      45.45000000      45.45000000      45.45000000      45.45000000      45.45000000      45.45000000      45.45000000      45.45000000      45.45000000      45.45000000      45.45000000      45.45000000      45.45000000      45.45000000      45.45000000      45.45000000      45.45000000      45.45000000      45.45000000      45.45000000      45.45000000      45.45000000      45.45000000      45.45000000      45.45000000      45.45000000      45.45000000      45.45000000      45.45000000      45.45000000      45.45000000      45.45000000      45.45000000      45.45000000      45.45000000      45.45000000      45.45000000      45.45000000      45.45000000      45.45000000      45.45000000      45.45000000      45.45000000      45.45000000      45.45000000      45.45000000      45.45000000      45.45000000      45.45000000      45.45000000      45.45000000      45.45000000      45.45000000
    INTERNAL  FACTOR  1.0
          45.45000000      45.45000000      45.45000000      45.45000000      45.45000000      45.45000000      45.45000000      45.45000000      45.45000000      45.45000000      45.45000000      45.45000000      45.45000000      45.45000000      45.45000000      45.45000000      45.45000000      45.45000000      45.45000000      45.45000000      45.45000000      45.45000000      45.45000000      45.45000000      45.45000000      45.45000000      45.45000000      45.45000000      45.45000000      45.45000000      45.45000000      45.45000000      45.45000000      45.45000000      45.45000000      45.45000000      45.45000000      45.45000000      45.45000000      45.45000000      45.45000000      45.45000000      45.45000000      45.45000000      45.45000000      45.45000000      45.45000000      45.45000000      45.45000000      45.45000000      45.45000000      45.45000000      45.45000000      45.45000000      45.45000000      45.45000000      45.45000000      45.45000000      45.45000000      45.45000000      45.45000000      45.45000000      45.45000000      45.45000000      45.45000000
    INTERNAL  FACTOR  1.0
          45.45000000      45.45000000      45.45000000      45.45000000      45.45000000      45.45000000      45.45000000      45.45000000      45.45000000      45.45000000      45.45000000      45.45000000      45.45000000      45.45000000      45.45000000      45.45000000      45.45000000      45.45000000      45.45000000      45.45000000      45.45000000      45.45000000      45.45000000      45.45000000      45.45000000      45.45000000      45.45000000      45.45000000      45.45000000      45.45000000      45.45000000      45.45000000      45.45000000      45.45000000      45.45000000      45.45000000      45.45000000      45.45000000      45.45000000      45.45000000      45.45000000      45.45000000      45.45000000      45.45000000      45.45000000      45.45000000      45.45000000      45.45000000      45.45000000      45.45000000      45.45000000      45.45000000      45.45000000      45.45000000      45.45000000      45.45000000      45.45000000      45.45000000      45.45000000      45.45000000      45.45000000      45.45000000      45.45000000      45.45000000      45.45000000
    INTERNAL  FACTOR  1.0