# File generated by Flopy version 3.4.3 on 12/11/2023 at 22:38:12.
BEGIN options
  SAVE_FLOWS
END options

BEGIN packages
  DIS6  /Users/Theo/GRWMODELS/python/Pennink-Model/cases/Series2/GWT/Series2Gwt.dis  dis
  ADV6  /Users/Theo/GRWMODELS/python/Pennink-Model/cases/Series2/GWT/Series2Gwt.adv  adv
  CNC6  /Users/Theo/GRWMODELS/python/Pennink-Model/cases/Series2/GWT/Series2Gwt.cnc  cnc
  DSP6  /Users/Theo/GRWMODELS/python/Pennink-Model/cases/Series2/GWT/Series2Gwt.dsp  dsp
  IC6  /Users/Theo/GRWMODELS/python/Pennink-Model/cases/Series2/GWT/Series2Gwt.ic  ic
  MST6  /Users/Theo/GRWMODELS/python/Pennink-Model/cases/Series2/GWT/Series2Gwt.mst  mst
  OC6  /Users/Theo/GRWMODELS/python/Pennink-Model/cases/Series2/GWT/Series2Gwt.oc  oc
  SSM6  /Users/Theo/GRWMODELS/python/Pennink-Model/cases/Series2/GWT/Series2Gwt.ssm  ssm
END packages

