# File generated by Flopy version 3.4.3 on 12/05/2023 at 20:56:26.
BEGIN options
  LENGTH_UNITS  centimeters
END options

BEGIN dimensions
  NLAY  65
  NROW  1
  NCOL  65
END dimensions

BEGIN griddata
  delr
    INTERNAL  FACTOR  1.0
         1.00000000       1.00000000       1.00000000       1.00000000       1.00000000       1.00000000       1.00000000       1.00000000       1.00000000       1.00000000       1.00000000       1.00000000       1.00000000       1.00000000       1.00000000       1.00000000       1.00000000       1.00000000       1.00000000       1.00000000       1.00000000       1.00000000       1.00000000       1.00000000       1.00000000       1.00000000       1.00000000       1.00000000       1.00000000       1.00000000       1.00000000       1.00000000       1.00000000       1.00000000       1.00000000       1.00000000       1.00000000       1.00000000       1.00000000       1.00000000       1.00000000       1.00000000       1.00000000       1.00000000       1.00000000       1.00000000       1.00000000       1.00000000       1.00000000       1.00000000       1.00000000       1.00000000       1.00000000       1.00000000       1.00000000       1.00000000       1.00000000       1.00000000       1.00000000       1.00000000       1.00000000       1.00000000       1.00000000       1.00000000       1.00000000
  delc
    CONSTANT       1.80000000
  top
    INTERNAL  FACTOR  1.0
        65.00000000      65.00000000      65.00000000      65.00000000      65.00000000      65.00000000      65.00000000      65.00000000      65.00000000      65.00000000      65.00000000      65.00000000      65.00000000      65.00000000      65.00000000      65.00000000      65.00000000      65.00000000      65.00000000      65.00000000      65.00000000      65.00000000      65.00000000      65.00000000      65.00000000      65.00000000      65.00000000      65.00000000      65.00000000      65.00000000      65.00000000      65.00000000      65.00000000      65.00000000      65.00000000      65.00000000      65.00000000      65.00000000      65.00000000      65.00000000      65.00000000      65.00000000      65.00000000      65.00000000      65.00000000      65.00000000      65.00000000      65.00000000      65.00000000      65.00000000      65.00000000      65.00000000      65.00000000      65.00000000      65.00000000      65.00000000      65.00000000      65.00000000      65.00000000      65.00000000      65.00000000      65.00000000      65.00000000      65.00000000      65.00000000
  botm  LAYERED
    INTERNAL  FACTOR  1.0
          64.00000000      64.00000000      64.00000000      64.00000000      64.00000000      64.00000000      64.00000000      64.00000000      64.00000000      64.00000000      64.00000000      64.00000000      64.00000000      64.00000000      64.00000000      64.00000000      64.00000000      64.00000000      64.00000000      64.00000000      64.00000000      64.00000000      64.00000000      64.00000000      64.00000000      64.00000000      64.00000000      64.00000000      64.00000000      64.00000000      64.00000000      64.00000000      64.00000000      64.00000000      64.00000000      64.00000000      64.00000000      64.00000000      64.00000000      64.00000000      64.00000000      64.00000000      64.00000000      64.00000000      64.00000000      64.00000000      64.00000000      64.00000000      64.00000000      64.00000000      64.00000000      64.00000000      64.00000000      64.00000000      64.00000000      64.00000000      64.00000000      64.00000000      64.00000000      64.00000000      64.00000000      64.00000000      64.00000000      64.00000000      64.00000000
    INTERNAL  FACTOR  1.0
          63.00000000      63.00000000      63.00000000      63.00000000      63.00000000      63.00000000      63.00000000      63.00000000      63.00000000      63.00000000      63.00000000      63.00000000      63.00000000      63.00000000      63.00000000      63.00000000      63.00000000      63.00000000      63.00000000      63.00000000      63.00000000      63.00000000      63.00000000      63.00000000      63.00000000      63.00000000      63.00000000      63.00000000      63.00000000      63.00000000      63.00000000      63.00000000      63.00000000      63.00000000      63.00000000      63.00000000      63.00000000      63.00000000      63.00000000      63.00000000      63.00000000      63.00000000      63.00000000      63.00000000      63.00000000      63.00000000      63.00000000      63.00000000      63.00000000      63.00000000      63.00000000      63.00000000      63.00000000      63.00000000      63.00000000      63.00000000      63.00000000      63.00000000      63.00000000      63.00000000      63.00000000      63.00000000      63.00000000      63.00000000      63.00000000
    INTERNAL  FACTOR  1.0
          62.00000000      62.00000000      62.00000000      62.00000000      62.00000000      62.00000000      62.00000000      62.00000000      62.00000000      62.00000000      62.00000000      62.00000000      62.00000000      62.00000000      62.00000000      62.00000000      62.00000000      62.00000000      62.00000000      62.00000000      62.00000000      62.00000000      62.00000000      62.00000000      62.00000000      62.00000000      62.00000000      62.00000000      62.00000000      62.00000000      62.00000000      62.00000000      62.00000000      62.00000000      62.00000000      62.00000000      62.00000000      62.00000000      62.00000000      62.00000000      62.00000000      62.00000000      62.00000000      62.00000000      62.00000000      62.00000000      62.00000000      62.00000000      62.00000000      62.00000000      62.00000000      62.00000000      62.00000000      62.00000000      62.00000000      62.00000000      62.00000000      62.00000000      62.00000000      62.00000000      62.00000000      62.00000000      62.00000000      62.00000000      62.00000000
    INTERNAL  FACTOR  1.0
          61.00000000      61.00000000      61.00000000      61.00000000      61.00000000      61.00000000      61.00000000      61.00000000      61.00000000      61.00000000      61.00000000      61.00000000      61.00000000      61.00000000      61.00000000      61.00000000      61.00000000      61.00000000      61.00000000      61.00000000      61.00000000      61.00000000      61.00000000      61.00000000      61.00000000      61.00000000      61.00000000      61.00000000      61.00000000      61.00000000      61.00000000      61.00000000      61.00000000      61.00000000      61.00000000      61.00000000      61.00000000      61.00000000      61.00000000      61.00000000      61.00000000      61.00000000      61.00000000      61.00000000      61.00000000      61.00000000      61.00000000      61.00000000      61.00000000      61.00000000      61.00000000      61.00000000      61.00000000      61.00000000      61.00000000      61.00000000      61.00000000      61.00000000      61.00000000      61.00000000      61.00000000      61.00000000      61.00000000      61.00000000      61.00000000
    INTERNAL  FACTOR  1.0
          60.00000000      60.00000000      60.00000000      60.00000000      60.00000000      60.00000000      60.00000000      60.00000000      60.00000000      60.00000000      60.00000000      60.00000000      60.00000000      60.00000000      60.00000000      60.00000000      60.00000000      60.00000000      60.00000000      60.00000000      60.00000000      60.00000000      60.00000000      60.00000000      60.00000000      60.00000000      60.00000000      60.00000000      60.00000000      60.00000000      60.00000000      60.00000000      60.00000000      60.00000000      60.00000000      60.00000000      60.00000000      60.00000000      60.00000000      60.00000000      60.00000000      60.00000000      60.00000000      60.00000000      60.00000000      60.00000000      60.00000000      60.00000000      60.00000000      60.00000000      60.00000000      60.00000000      60.00000000      60.00000000      60.00000000      60.00000000      60.00000000      60.00000000      60.00000000      60.00000000      60.00000000      60.00000000      60.00000000      60.00000000      60.00000000
    INTERNAL  FACTOR  1.0
          59.00000000      59.00000000      59.00000000      59.00000000      59.00000000      59.00000000      59.00000000      59.00000000      59.00000000      59.00000000      59.00000000      59.00000000      59.00000000      59.00000000      59.00000000      59.00000000      59.00000000      59.00000000      59.00000000      59.00000000      59.00000000      59.00000000      59.00000000      59.00000000      59.00000000      59.00000000      59.00000000      59.00000000      59.00000000      59.00000000      59.00000000      59.00000000      59.00000000      59.00000000      59.00000000      59.00000000      59.00000000      59.00000000      59.00000000      59.00000000      59.00000000      59.00000000      59.00000000      59.00000000      59.00000000      59.00000000      59.00000000      59.00000000      59.00000000      59.00000000      59.00000000      59.00000000      59.00000000      59.00000000      59.00000000      59.00000000      59.00000000      59.00000000      59.00000000      59.00000000      59.00000000      59.00000000      59.00000000      59.00000000      59.00000000
    INTERNAL  FACTOR  1.0
          58.00000000      58.00000000      58.00000000      58.00000000      58.00000000      58.00000000      58.00000000      58.00000000      58.00000000      58.00000000      58.00000000      58.00000000      58.00000000      58.00000000      58.00000000      58.00000000      58.00000000      58.00000000      58.00000000      58.00000000      58.00000000      58.00000000      58.00000000      58.00000000      58.00000000      58.00000000      58.00000000      58.00000000      58.00000000      58.00000000      58.00000000      58.00000000      58.00000000      58.00000000      58.00000000      58.00000000      58.00000000      58.00000000      58.00000000      58.00000000      58.00000000      58.00000000      58.00000000      58.00000000      58.00000000      58.00000000      58.00000000      58.00000000      58.00000000      58.00000000      58.00000000      58.00000000      58.00000000      58.00000000      58.00000000      58.00000000      58.00000000      58.00000000      58.00000000      58.00000000      58.00000000      58.00000000      58.00000000      58.00000000      58.00000000
    INTERNAL  FACTOR  1.0
          57.00000000      57.00000000      57.00000000      57.00000000      57.00000000      57.00000000      57.00000000      57.00000000      57.00000000      57.00000000      57.00000000      57.00000000      57.00000000      57.00000000      57.00000000      57.00000000      57.00000000      57.00000000      57.00000000      57.00000000      57.00000000      57.00000000      57.00000000      57.00000000      57.00000000      57.00000000      57.00000000      57.00000000      57.00000000      57.00000000      57.00000000      57.00000000      57.00000000      57.00000000      57.00000000      57.00000000      57.00000000      57.00000000      57.00000000      57.00000000      57.00000000      57.00000000      57.00000000      57.00000000      57.00000000      57.00000000      57.00000000      57.00000000      57.00000000      57.00000000      57.00000000      57.00000000      57.00000000      57.00000000      57.00000000      57.00000000      57.00000000      57.00000000      57.00000000      57.00000000      57.00000000      57.00000000      57.00000000      57.00000000      57.00000000
    INTERNAL  FACTOR  1.0
          56.00000000      56.00000000      56.00000000      56.00000000      56.00000000      56.00000000      56.00000000      56.00000000      56.00000000      56.00000000      56.00000000      56.00000000      56.00000000      56.00000000      56.00000000      56.00000000      56.00000000      56.00000000      56.00000000      56.00000000      56.00000000      56.00000000      56.00000000      56.00000000      56.00000000      56.00000000      56.00000000      56.00000000      56.00000000      56.00000000      56.00000000      56.00000000      56.00000000      56.00000000      56.00000000      56.00000000      56.00000000      56.00000000      56.00000000      56.00000000      56.00000000      56.00000000      56.00000000      56.00000000      56.00000000      56.00000000      56.00000000      56.00000000      56.00000000      56.00000000      56.00000000      56.00000000      56.00000000      56.00000000      56.00000000      56.00000000      56.00000000      56.00000000      56.00000000      56.00000000      56.00000000      56.00000000      56.00000000      56.00000000      56.00000000
    INTERNAL  FACTOR  1.0
          55.00000000      55.00000000      55.00000000      55.00000000      55.00000000      55.00000000      55.00000000      55.00000000      55.00000000      55.00000000      55.00000000      55.00000000      55.00000000      55.00000000      55.00000000      55.00000000      55.00000000      55.00000000      55.00000000      55.00000000      55.00000000      55.00000000      55.00000000      55.00000000      55.00000000      55.00000000      55.00000000      55.00000000      55.00000000      55.00000000      55.00000000      55.00000000      55.00000000      55.00000000      55.00000000      55.00000000      55.00000000      55.00000000      55.00000000      55.00000000      55.00000000      55.00000000      55.00000000      55.00000000      55.00000000      55.00000000      55.00000000      55.00000000      55.00000000      55.00000000      55.00000000      55.00000000      55.00000000      55.00000000      55.00000000      55.00000000      55.00000000      55.00000000      55.00000000      55.00000000      55.00000000      55.00000000      55.00000000      55.00000000      55.00000000
    INTERNAL  FACTOR  1.0
          54.00000000      54.00000000      54.00000000      54.00000000      54.00000000      54.00000000      54.00000000      54.00000000      54.00000000      54.00000000      54.00000000      54.00000000      54.00000000      54.00000000      54.00000000      54.00000000      54.00000000      54.00000000      54.00000000      54.00000000      54.00000000      54.00000000      54.00000000      54.00000000      54.00000000      54.00000000      54.00000000      54.00000000      54.00000000      54.00000000      54.00000000      54.00000000      54.00000000      54.00000000      54.00000000      54.00000000      54.00000000      54.00000000      54.00000000      54.00000000      54.00000000      54.00000000      54.00000000      54.00000000      54.00000000      54.00000000      54.00000000      54.00000000      54.00000000      54.00000000      54.00000000      54.00000000      54.00000000      54.00000000      54.00000000      54.00000000      54.00000000      54.00000000      54.00000000      54.00000000      54.00000000      54.00000000      54.00000000      54.00000000      54.00000000
    INTERNAL  FACTOR  1.0
          53.00000000      53.00000000      53.00000000      53.00000000      53.00000000      53.00000000      53.00000000      53.00000000      53.00000000      53.00000000      53.00000000      53.00000000      53.00000000      53.00000000      53.00000000      53.00000000      53.00000000      53.00000000      53.00000000      53.00000000      53.00000000      53.00000000      53.00000000      53.00000000      53.00000000      53.00000000      53.00000000      53.00000000      53.00000000      53.00000000      53.00000000      53.00000000      53.00000000      53.00000000      53.00000000      53.00000000      53.00000000      53.00000000      53.00000000      53.00000000      53.00000000      53.00000000      53.00000000      53.00000000      53.00000000      53.00000000      53.00000000      53.00000000      53.00000000      53.00000000      53.00000000      53.00000000      53.00000000      53.00000000      53.00000000      53.00000000      53.00000000      53.00000000      53.00000000      53.00000000      53.00000000      53.00000000      53.00000000      53.00000000      53.00000000
    INTERNAL  FACTOR  1.0
          52.00000000      52.00000000      52.00000000      52.00000000      52.00000000      52.00000000      52.00000000      52.00000000      52.00000000      52.00000000      52.00000000      52.00000000      52.00000000      52.00000000      52.00000000      52.00000000      52.00000000      52.00000000      52.00000000      52.00000000      52.00000000      52.00000000      52.00000000      52.00000000      52.00000000      52.00000000      52.00000000      52.00000000      52.00000000      52.00000000      52.00000000      52.00000000      52.00000000      52.00000000      52.00000000      52.00000000      52.00000000      52.00000000      52.00000000      52.00000000      52.00000000      52.00000000      52.00000000      52.00000000      52.00000000      52.00000000      52.00000000      52.00000000      52.00000000      52.00000000      52.00000000      52.00000000      52.00000000      52.00000000      52.00000000      52.00000000      52.00000000      52.00000000      52.00000000      52.00000000      52.00000000      52.00000000      52.00000000      52.00000000      52.00000000
    INTERNAL  FACTOR  1.0
          51.00000000      51.00000000      51.00000000      51.00000000      51.00000000      51.00000000      51.00000000      51.00000000      51.00000000      51.00000000      51.00000000      51.00000000      51.00000000      51.00000000      51.00000000      51.00000000      51.00000000      51.00000000      51.00000000      51.00000000      51.00000000      51.00000000      51.00000000      51.00000000      51.00000000      51.00000000      51.00000000      51.00000000      51.00000000      51.00000000      51.00000000      51.00000000      51.00000000      51.00000000      51.00000000      51.00000000      51.00000000      51.00000000      51.00000000      51.00000000      51.00000000      51.00000000      51.00000000      51.00000000      51.00000000      51.00000000      51.00000000      51.00000000      51.00000000      51.00000000      51.00000000      51.00000000      51.00000000      51.00000000      51.00000000      51.00000000      51.00000000      51.00000000      51.00000000      51.00000000      51.00000000      51.00000000      51.00000000      51.00000000      51.00000000
    INTERNAL  FACTOR  1.0
          50.00000000      50.00000000      50.00000000      50.00000000      50.00000000      50.00000000      50.00000000      50.00000000      50.00000000      50.00000000      50.00000000      50.00000000      50.00000000      50.00000000      50.00000000      50.00000000      50.00000000      50.00000000      50.00000000      50.00000000      50.00000000      50.00000000      50.00000000      50.00000000      50.00000000      50.00000000      50.00000000      50.00000000      50.00000000      50.00000000      50.00000000      50.00000000      50.00000000      50.00000000      50.00000000      50.00000000      50.00000000      50.00000000      50.00000000      50.00000000      50.00000000      50.00000000      50.00000000      50.00000000      50.00000000      50.00000000      50.00000000      50.00000000      50.00000000      50.00000000      50.00000000      50.00000000      50.00000000      50.00000000      50.00000000      50.00000000      50.00000000      50.00000000      50.00000000      50.00000000      50.00000000      50.00000000      50.00000000      50.00000000      50.00000000
    INTERNAL  FACTOR  1.0
          49.00000000      49.00000000      49.00000000      49.00000000      49.00000000      49.00000000      49.00000000      49.00000000      49.00000000      49.00000000      49.00000000      49.00000000      49.00000000      49.00000000      49.00000000      49.00000000      49.00000000      49.00000000      49.00000000      49.00000000      49.00000000      49.00000000      49.00000000      49.00000000      49.00000000      49.00000000      49.00000000      49.00000000      49.00000000      49.00000000      49.00000000      49.00000000      49.00000000      49.00000000      49.00000000      49.00000000      49.00000000      49.00000000      49.00000000      49.00000000      49.00000000      49.00000000      49.00000000      49.00000000      49.00000000      49.00000000      49.00000000      49.00000000      49.00000000      49.00000000      49.00000000      49.00000000      49.00000000      49.00000000      49.00000000      49.00000000      49.00000000      49.00000000      49.00000000      49.00000000      49.00000000      49.00000000      49.00000000      49.00000000      49.00000000
    INTERNAL  FACTOR  1.0
          48.00000000      48.00000000      48.00000000      48.00000000      48.00000000      48.00000000      48.00000000      48.00000000      48.00000000      48.00000000      48.00000000      48.00000000      48.00000000      48.00000000      48.00000000      48.00000000      48.00000000      48.00000000      48.00000000      48.00000000      48.00000000      48.00000000      48.00000000      48.00000000      48.00000000      48.00000000      48.00000000      48.00000000      48.00000000      48.00000000      48.00000000      48.00000000      48.00000000      48.00000000      48.00000000      48.00000000      48.00000000      48.00000000      48.00000000      48.00000000      48.00000000      48.00000000      48.00000000      48.00000000      48.00000000      48.00000000      48.00000000      48.00000000      48.00000000      48.00000000      48.00000000      48.00000000      48.00000000      48.00000000      48.00000000      48.00000000      48.00000000      48.00000000      48.00000000      48.00000000      48.00000000      48.00000000      48.00000000      48.00000000      48.00000000
    INTERNAL  FACTOR  1.0
          47.00000000      47.00000000      47.00000000      47.00000000      47.00000000      47.00000000      47.00000000      47.00000000      47.00000000      47.00000000      47.00000000      47.00000000      47.00000000      47.00000000      47.00000000      47.00000000      47.00000000      47.00000000      47.00000000      47.00000000      47.00000000      47.00000000      47.00000000      47.00000000      47.00000000      47.00000000      47.00000000      47.00000000      47.00000000      47.00000000      47.00000000      47.00000000      47.00000000      47.00000000      47.00000000      47.00000000      47.00000000      47.00000000      47.00000000      47.00000000      47.00000000      47.00000000      47.00000000      47.00000000      47.00000000      47.00000000      47.00000000      47.00000000      47.00000000      47.00000000      47.00000000      47.00000000      47.00000000      47.00000000      47.00000000      47.00000000      47.00000000      47.00000000      47.00000000      47.00000000      47.00000000      47.00000000      47.00000000      47.00000000      47.00000000
    INTERNAL  FACTOR  1.0
          46.00000000      46.00000000      46.00000000      46.00000000      46.00000000      46.00000000      46.00000000      46.00000000      46.00000000      46.00000000      46.00000000      46.00000000      46.00000000      46.00000000      46.00000000      46.00000000      46.00000000      46.00000000      46.00000000      46.00000000      46.00000000      46.00000000      46.00000000      46.00000000      46.00000000      46.00000000      46.00000000      46.00000000      46.00000000      46.00000000      46.00000000      46.00000000      46.00000000      46.00000000      46.00000000      46.00000000      46.00000000      46.00000000      46.00000000      46.00000000      46.00000000      46.00000000      46.00000000      46.00000000      46.00000000      46.00000000      46.00000000      46.00000000      46.00000000      46.00000000      46.00000000      46.00000000      46.00000000      46.00000000      46.00000000      46.00000000      46.00000000      46.00000000      46.00000000      46.00000000      46.00000000      46.00000000      46.00000000      46.00000000      46.00000000
    INTERNAL  FACTOR  1.0
          45.00000000      45.00000000      45.00000000      45.00000000      45.00000000      45.00000000      45.00000000      45.00000000      45.00000000      45.00000000      45.00000000      45.00000000      45.00000000      45.00000000      45.00000000      45.00000000      45.00000000      45.00000000      45.00000000      45.00000000      45.00000000      45.00000000      45.00000000      45.00000000      45.00000000      45.00000000      45.00000000      45.00000000      45.00000000      45.00000000      45.00000000      45.00000000      45.00000000      45.00000000      45.00000000      45.00000000      45.00000000      45.00000000      45.00000000      45.00000000      45.00000000      45.00000000      45.00000000      45.00000000      45.00000000      45.00000000      45.00000000      45.00000000      45.00000000      45.00000000      45.00000000      45.00000000      45.00000000      45.00000000      45.00000000      45.00000000      45.00000000      45.00000000      45.00000000      45.00000000      45.00000000      45.00000000      45.00000000      45.00000000      45.00000000
    INTERNAL  FACTOR  1.0
          44.00000000      44.00000000      44.00000000      44.00000000      44.00000000      44.00000000      44.00000000      44.00000000      44.00000000      44.00000000      44.00000000      44.00000000      44.00000000      44.00000000      44.00000000      44.00000000      44.00000000      44.00000000      44.00000000      44.00000000      44.00000000      44.00000000      44.00000000      44.00000000      44.00000000      44.00000000      44.00000000      44.00000000      44.00000000      44.00000000      44.00000000      44.00000000      44.00000000      44.00000000      44.00000000      44.00000000      44.00000000      44.00000000      44.00000000      44.00000000      44.00000000      44.00000000      44.00000000      44.00000000      44.00000000      44.00000000      44.00000000      44.00000000      44.00000000      44.00000000      44.00000000      44.00000000      44.00000000      44.00000000      44.00000000      44.00000000      44.00000000      44.00000000      44.00000000      44.00000000      44.00000000      44.00000000      44.00000000      44.00000000      44.00000000
    INTERNAL  FACTOR  1.0
          43.00000000      43.00000000      43.00000000      43.00000000      43.00000000      43.00000000      43.00000000      43.00000000      43.00000000      43.00000000      43.00000000      43.00000000      43.00000000      43.00000000      43.00000000      43.00000000      43.00000000      43.00000000      43.00000000      43.00000000      43.00000000      43.00000000      43.00000000      43.00000000      43.00000000      43.00000000      43.00000000      43.00000000      43.00000000      43.00000000      43.00000000      43.00000000      43.00000000      43.00000000      43.00000000      43.00000000      43.00000000      43.00000000      43.00000000      43.00000000      43.00000000      43.00000000      43.00000000      43.00000000      43.00000000      43.00000000      43.00000000      43.00000000      43.00000000      43.00000000      43.00000000      43.00000000      43.00000000      43.00000000      43.00000000      43.00000000      43.00000000      43.00000000      43.00000000      43.00000000      43.00000000      43.00000000      43.00000000      43.00000000      43.00000000
    INTERNAL  FACTOR  1.0
          42.00000000      42.00000000      42.00000000      42.00000000      42.00000000      42.00000000      42.00000000      42.00000000      42.00000000      42.00000000      42.00000000      42.00000000      42.00000000      42.00000000      42.00000000      42.00000000      42.00000000      42.00000000      42.00000000      42.00000000      42.00000000      42.00000000      42.00000000      42.00000000      42.00000000      42.00000000      42.00000000      42.00000000      42.00000000      42.00000000      42.00000000      42.00000000      42.00000000      42.00000000      42.00000000      42.00000000      42.00000000      42.00000000      42.00000000      42.00000000      42.00000000      42.00000000      42.00000000      42.00000000      42.00000000      42.00000000      42.00000000      42.00000000      42.00000000      42.00000000      42.00000000      42.00000000      42.00000000      42.00000000      42.00000000      42.00000000      42.00000000      42.00000000      42.00000000      42.00000000      42.00000000      42.00000000      42.00000000      42.00000000      42.00000000
    INTERNAL  FACTOR  1.0
          41.00000000      41.00000000      41.00000000      41.00000000      41.00000000      41.00000000      41.00000000      41.00000000      41.00000000      41.00000000      41.00000000      41.00000000      41.00000000      41.00000000      41.00000000      41.00000000      41.00000000      41.00000000      41.00000000      41.00000000      41.00000000      41.00000000      41.00000000      41.00000000      41.00000000      41.00000000      41.00000000      41.00000000      41.00000000      41.00000000      41.00000000      41.00000000      41.00000000      41.00000000      41.00000000      41.00000000      41.00000000      41.00000000      41.00000000      41.00000000      41.00000000      41.00000000      41.00000000      41.00000000      41.00000000      41.00000000      41.00000000      41.00000000      41.00000000      41.00000000      41.00000000      41.00000000      41.00000000      41.00000000      41.00000000      41.00000000      41.00000000      41.00000000      41.00000000      41.00000000      41.00000000      41.00000000      41.00000000      41.00000000      41.00000000
    INTERNAL  FACTOR  1.0