# File generated by Flopy version 3.4.3 on 12/05/2023 at 20:56:26.
BEGIN options
  BUDGET  FILEOUT  /Users/Theo/GRWMODELS/python/Pennink_model/cases/Series2/SIM/Series2Gwt.cbc
  CONCENTRATION  FILEOUT  /Users/Theo/GRWMODELS/python/Pennink_model/cases/Series2/SIM/Series2Gwt.ucn
END options

BEGIN period  1
  SAVE  CONCENTRATION  ALL
  SAVE  BUDGET  ALL
END period  1

