# File generated by Flopy version 3.4.3 on 12/05/2023 at 20:56:26.
BEGIN options
END options

BEGIN griddata
  diffc
    CONSTANT  6.00000000E-05
  alh
    CONSTANT       1.00000000
  ath1
    CONSTANT       0.01000000
  ath2
    CONSTANT       0.01000000
  atv
    CONSTANT       0.10000000
END griddata

