# File generated by Flopy version 3.4.3 on 12/05/2023 at 20:56:26.
BEGIN options
  SAVE_FLOWS
END options

BEGIN griddata
  porosity
    CONSTANT       0.20000000
END griddata

