# File generated by Flopy version 3.4.3 on 12/11/2023 at 22:38:12.
BEGIN options
  BUDGET  FILEOUT  /Users/Theo/GRWMODELS/python/Pennink-Model/cases/Series2/SIM/Series2Gwt.cbc
  CONCENTRATION  FILEOUT  /Users/Theo/GRWMODELS/python/Pennink-Model/cases/Series2/SIM/Series2Gwt.ucn
END options

BEGIN period  1
  SAVE  CONCENTRATION  ALL
  SAVE  BUDGET  ALL
END period  1

