# File generated by Flopy version 3.4.3 on 12/05/2023 at 20:56:26.
BEGIN options
  SAVE_FLOWS
END options

BEGIN dimensions
  MAXBOUND  4
END dimensions

BEGIN period  9
  16 1 51       1.00000000
  21 1 53       1.00000000
  32 1 54       1.00000000
  43 1 57       1.00000000
END period  9

BEGIN period  53
  16 1 51       0.00000000
  21 1 53       0.00000000
  32 1 54       0.00000000
  43 1 57       0.00000000
END period  53

