# File generated by Flopy version 3.4.3 on 12/16/2023 at 01:59:35.
BEGIN options
  COMPLEXITY  simple
END options

