# File generated by Flopy version 3.4.3 on 12/16/2023 at 01:59:35.
BEGIN options
  TIME_UNITS  days
  START_DATE_TIME  2018-01-01
END options

BEGIN dimensions
  NPER  29
END dimensions

BEGIN perioddata
      31.00000000  4       1.25000000
      31.00000000  4       1.25000000
      28.00000000  4       1.25000000
      31.00000000  4       1.25000000
      30.00000000  4       1.25000000
      31.00000000  4       1.25000000
      30.00000000  4       1.25000000
      31.00000000  4       1.25000000
      31.00000000  4       1.25000000
      30.00000000  4       1.25000000
      31.00000000  4       1.25000000
      30.00000000  4       1.25000000
      31.00000000  4       1.25000000
      31.00000000  4       1.25000000
      28.00000000  4       1.25000000
      31.00000000  4       1.25000000
      30.00000000  4       1.25000000
      31.00000000  4       1.25000000
      30.00000000  4       1.25000000
      31.00000000  4       1.25000000
      31.00000000  4       1.25000000
      30.00000000  4       1.25000000
      31.00000000  4       1.25000000
      30.00000000  4       1.25000000
      31.00000000  4       1.25000000
      31.00000000  4       1.25000000
      29.00000000  4       1.25000000
      31.00000000  4       1.25000000
      30.00000000  4       1.25000000
END perioddata

