# File generated by Flopy version 3.4.3 on 12/16/2023 at 01:59:35.
BEGIN options
END options

BEGIN timing
  TDIS6  Fremont.tdis
END timing

BEGIN models
  gwf6  /Users/Theo/GRWMODELS/python/Pennink-Model/cases/Fremont/GWF/FremontGwf.nam  FremontGwf
END models

BEGIN exchanges
END exchanges

BEGIN solutiongroup  1
  ims6  Fremont.ims  FremontGwf
END solutiongroup  1

